# generated using pymatgen
data_MgTiMnVZnCrFeCoCuNiSb20ClO54
_symmetry_space_group_name_H-M   'P 1'
_cell_length_a   6.64649000
_cell_length_b   9.46641200
_cell_length_c   28.85804800
_cell_angle_alpha   89.45695200
_cell_angle_beta   89.76940700
_cell_angle_gamma   89.89911500
_symmetry_Int_Tables_number   1
_chemical_formula_structural   MgTiMnVZnCrFeCoCuNiSb20ClO54
_chemical_formula_sum
'Mg1 Ti1 Mn1 V1 Zn1 Cr1 Fe1 Co1 Cu1 Ni1 Sb20 Cl1 O54'
_cell_volume   1815.60362174
_cell_formula_units_Z   1
loop_
 _symmetry_equiv_pos_site_id
 _symmetry_equiv_pos_as_xyz
  1  'x, y, z'
loop_
 _atom_site_type_symbol
 _atom_site_label
 _atom_site_symmetry_multiplicity
 _atom_site_fract_x
 _atom_site_fract_y
 _atom_site_fract_z
 _atom_site_occupancy
  Mg  Mg0  1  0.50000000  0.50000000  0.77241000  1
  Ti  Ti1  1  0.50000000  0.83232000  0.00000000  1
  Mn  Mn2  1  0.00000000  1.00000000  0.77241000  1
  V  V3  1  0.50000000  0.83232000  0.77241000  1
  Zn  Zn4  1  0.00175600  0.16707300  0.65966100  1
  Cr  Cr5  1  0.99772600  0.30408900  0.54232400  1
  Fe  Fe6  1  0.00000000  0.16768000  0.88621000  1
  Co  Co7  1  0.00000000  0.66768000  0.00000000  1
  Cu  Cu8  1  0.51143800  0.50768200  0.54733300  1
  Ni  Ni9  1  0.50000000  0.33232000  0.88621000  1
  Sb  Sb10  1  0.00000000  0.00000000  0.00000000  1
  Sb  Sb11  1  0.50000000  1.00000000  0.88621000  1
  Sb  Sb12  1  0.50178200  0.99824700  0.65611800  1
  Sb  Sb13  1  0.00436100  0.97777900  0.54223800  1
  Sb  Sb14  1  0.50000000  0.50000000  0.00000000  1
  Sb  Sb15  1  0.00000000  0.50000000  0.88621000  1
  Sb  Sb16  1  0.00189700  0.49556900  0.64966400  1
  Sb  Sb17  1  0.00000000  0.33232000  0.00000000  1
  Sb  Sb18  1  0.00000000  0.33232000  0.77241000  1
  Sb  Sb19  1  0.50206300  0.34127700  0.65833900  1
  Sb  Sb20  1  0.00000000  0.83232000  0.88621000  1
  Sb  Sb21  1  0.00181800  0.84547200  0.65984000  1
  Sb  Sb22  1  0.50501200  0.81760200  0.52133300  1
  Sb  Sb23  1  0.50000000  0.16768000  0.00000000  1
  Sb  Sb24  1  0.50000000  0.16768000  0.77241000  1
  Sb  Sb25  1  0.49396400  0.17282900  0.53991600  1
  Sb  Sb26  1  0.50000000  0.66768000  0.88621000  1
  Sb  Sb27  1  0.00000000  0.66768000  0.77241000  1
  Sb  Sb28  1  0.50172800  0.67287800  0.65857600  1
  Sb  Sb29  1  0.00850400  0.64096800  0.52115900  1
  Cl  Cl30  1  0.49781600  0.50843500  0.47269900  1
  O  O31  1  0.00000000  0.17164000  0.95506000  1
  O  O32  1  0.50000000  0.17164000  0.84126000  1
  O  O33  1  0.99980400  0.15525700  0.72934800  1
  O  O34  1  0.50287200  0.17462100  0.61274600  1
  O  O35  1  0.50000000  0.17164000  0.93115000  1
  O  O36  1  0.00000000  0.17164000  0.81736000  1
  O  O37  1  0.50149400  0.16798700  0.70133000  1
  O  O38  1  0.00882900  0.15933100  0.58246200  1
  O  O39  1  0.30253000  0.67164000  1.00000000  1
  O  O40  1  0.80253000  0.67164000  0.88621000  1
  O  O41  1  0.30253000  0.67164000  0.77241000  1
  O  O42  1  0.80223900  0.68400100  0.66489600  1
  O  O43  1  0.28278400  0.69113900  0.54869400  1
  O  O44  1  0.69747000  0.67164000  1.00000000  1
  O  O45  1  0.19747000  0.67164000  0.88621000  1
  O  O46  1  0.69747000  0.67164000  0.77241000  1
  O  O47  1  0.20187600  0.68382100  0.66481300  1
  O  O48  1  0.72830800  0.68947300  0.54815900  1
  O  O49  1  0.30253000  0.32836000  1.00000000  1
  O  O50  1  0.80253000  0.32836000  0.88621000  1
  O  O51  1  0.30253000  0.32836000  0.77241000  1
  O  O52  1  0.79804900  0.32889500  0.65751600  1
  O  O53  1  0.18136900  0.27875200  0.50615600  1
  O  O54  1  0.69747000  0.32836000  1.00000000  1
  O  O55  1  0.19747000  0.32836000  0.88621000  1
  O  O56  1  0.69747000  0.32836000  0.77241000  1
  O  O57  1  0.20601400  0.32923700  0.65786100  1
  O  O58  1  0.77332400  0.29806500  0.51852000  1
  O  O59  1  0.00000000  0.82836000  0.95506000  1
  O  O60  1  0.50000000  0.82836000  0.84126000  1
  O  O61  1  0.99978400  0.84468700  0.72933600  1
  O  O62  1  0.50376100  0.83354000  0.61356100  1
  O  O63  1  0.50000000  0.82836000  0.93115000  1
  O  O64  1  0.00000000  0.82836000  0.81736000  1
  O  O65  1  0.50202800  0.83928000  0.70514600  1
  O  O66  1  0.00241900  0.83800300  0.59292500  1
  O  O67  1  0.00000000  0.50000000  0.95668000  1
  O  O68  1  0.50000000  0.50000000  0.84289000  1
  O  O69  1  0.99950800  0.49998000  0.72830400  1
  O  O70  1  0.50436400  0.50622800  0.61338300  1
  O  O71  1  0.50000000  0.50000000  0.92952000  1
  O  O72  1  0.00000000  0.50000000  0.81573000  1
  O  O73  1  0.50106000  0.50532500  0.70152700  1
  O  O74  1  0.01502200  0.47383900  0.56776400  1
  O  O75  1  0.30966000  1.00000000  1.00000000  1
  O  O76  1  0.80966000  1.00000000  0.88621000  1
  O  O77  1  0.30966000  1.00000000  0.77241000  1
  O  O78  1  0.80073400  0.00266600  0.65851100  1
  O  O79  1  0.31693300  0.99620600  0.54765100  1
  O  O80  1  0.69034000  1.00000000  1.00000000  1
  O  O81  1  0.19034000  1.00000000  0.88621000  1
  O  O82  1  0.69034000  1.00000000  0.77241000  1
  O  O83  1  0.20332800  0.00209100  0.65921100  1
  O  O84  1  0.68739900  0.00652200  0.54548700  1
