# generated using pymatgen
data_MgTiMnVZnCrFeCoCuNiSb20ClO54
_symmetry_space_group_name_H-M   'P 1'
_cell_length_a   6.66801400
_cell_length_b   9.52047300
_cell_length_c   28.97725500
_cell_angle_alpha   90.21812100
_cell_angle_beta   89.95713600
_cell_angle_gamma   89.99808500
_symmetry_Int_Tables_number   1
_chemical_formula_structural   MgTiMnVZnCrFeCoCuNiSb20ClO54
_chemical_formula_sum
'Mg1 Ti1 Mn1 V1 Zn1 Cr1 Fe1 Co1 Cu1 Ni1 Sb20 Cl1 O54'
_cell_volume   1839.53901143
_cell_formula_units_Z   1
loop_
 _symmetry_equiv_pos_site_id
 _symmetry_equiv_pos_as_xyz
  1  'x, y, z'
loop_
 _atom_site_type_symbol
 _atom_site_label
 _atom_site_symmetry_multiplicity
 _atom_site_fract_x
 _atom_site_fract_y
 _atom_site_fract_z
 _atom_site_occupancy
  Mg  Mg0  1  1.00000000  0.83232000  0.11379000  1
  Ti  Ti1  1  0.50000000  0.16768000  1.00000000  1
  Mn  Mn2  1  0.50213900  0.51214300  0.45160300  1
  V  V3  1  0.00070400  0.17768200  0.35022300  1
  Zn  Zn4  1  0.00000000  0.66768000  0.22759000  1
  Cr  Cr5  1  0.00000000  0.00000000  0.00000000  1
  Fe  Fe6  1  0.50142900  0.82704200  0.45148300  1
  Co  Co7  1  0.50000000  0.66768000  0.11379000  1
  Cu  Cu8  1  0.50011900  0.33387500  0.35043200  1
  Ni  Ni9  1  1.00000000  0.33232000  1.00000000  1
  Sb  Sb10  1  0.50000000  0.00000000  0.11379000  1
  Sb  Sb11  1  0.00000000  1.00000000  0.22759000  1
  Sb  Sb12  1  0.50018400  0.01295300  0.34446700  1
  Sb  Sb13  1  0.00168300  0.99692600  0.46293600  1
  Sb  Sb14  1  0.50000000  0.50000000  1.00000000  1
  Sb  Sb15  1  1.00000000  0.50000000  0.11379000  1
  Sb  Sb16  1  0.50000000  0.50000000  0.22759000  1
  Sb  Sb17  1  0.00003700  0.49195100  0.34226500  1
  Sb  Sb18  1  1.00000000  0.66768000  1.00000000  1
  Sb  Sb19  1  0.49998600  0.66446800  0.34132300  1
  Sb  Sb20  1  0.00153600  0.67615100  0.46472900  1
  Sb  Sb21  1  0.00000000  0.16768000  0.11379000  1
  Sb  Sb22  1  0.50000000  0.16768000  0.22759000  1
  Sb  Sb23  1  0.50142800  0.18024200  0.46177800  1
  Sb  Sb24  1  0.50000000  0.83232000  1.00000000  1
  Sb  Sb25  1  0.50000000  0.83232000  0.22759000  1
  Sb  Sb26  1  0.00034400  0.84406900  0.34074900  1
  Sb  Sb27  1  0.50000000  0.33232000  0.11379000  1
  Sb  Sb28  1  0.00000000  0.33232000  0.22759000  1
  Sb  Sb29  1  0.99892600  0.34281500  0.46454300  1
  Cl  Cl30  1  0.51383300  0.49221400  0.52874600  1
  O  O31  1  0.00000000  0.82836000  0.04494000  1
  O  O32  1  0.50000000  0.82836000  0.15874000  1
  O  O33  1  0.99980400  0.84474300  0.27065200  1
  O  O34  1  0.49858400  0.83571900  0.38307700  1
  O  O35  1  0.50000000  0.82836000  0.06885000  1
  O  O36  1  0.00000000  0.82836000  0.18264000  1
  O  O37  1  0.50134800  0.84185700  0.29701700  1
  O  O38  1  0.00238100  0.83501500  0.41252300  1
  O  O39  1  0.30253000  0.32836000  1.00000000  1
  O  O40  1  0.80253000  0.32836000  0.11379000  1
  O  O41  1  0.30253000  0.32836000  0.22759000  1
  O  O42  1  0.80988800  0.29806800  0.34339900  1
  O  O43  1  0.31002100  0.35329200  0.44910600  1
  O  O44  1  0.69747000  0.32836000  1.00000000  1
  O  O45  1  0.19747000  0.32836000  0.11379000  1
  O  O46  1  0.69747000  0.32836000  0.22759000  1
  O  O47  1  0.19069400  0.29895300  0.34280500  1
  O  O48  1  0.69222400  0.35354800  0.44659500  1
  O  O49  1  0.30253000  0.67164000  1.00000000  1
  O  O50  1  0.80253000  0.67164000  0.11379000  1
  O  O51  1  0.30253000  0.67164000  0.22759000  1
  O  O52  1  0.80465300  0.67953200  0.33888000  1
  O  O53  1  0.32006800  0.67016800  0.45465700  1
  O  O54  1  0.69747000  0.67164000  1.00000000  1
  O  O55  1  0.19747000  0.67164000  0.11379000  1
  O  O56  1  0.69747000  0.67164000  0.22759000  1
  O  O57  1  0.19525400  0.67909500  0.33856200  1
  O  O58  1  0.68343400  0.66976600  0.45283000  1
  O  O59  1  0.00000000  0.17164000  0.04494000  1
  O  O60  1  0.50000000  0.17164000  0.15874000  1
  O  O61  1  0.99978400  0.15531300  0.27066400  1
  O  O62  1  0.49683000  0.15766600  0.39272500  1
  O  O63  1  0.50000000  0.17164000  0.06885000  1
  O  O64  1  1.00000000  0.17164000  0.18264000  1
  O  O65  1  0.50039400  0.16413200  0.29670200  1
  O  O66  1  0.00181200  0.16747700  0.41502600  1
  O  O67  1  1.00000000  0.50000000  0.04332000  1
  O  O68  1  0.50000000  0.50000000  0.15711000  1
  O  O69  1  0.99950800  0.50002000  0.27169600  1
  O  O70  1  0.49595900  0.51251400  0.38682800  1
  O  O71  1  0.50000000  0.50000000  0.07048000  1
  O  O72  1  1.00000000  0.50000000  0.18427000  1
  O  O73  1  0.50128900  0.49831300  0.29751600  1
  O  O74  1  0.00376200  0.50998300  0.42056100  1
  O  O75  1  0.30966000  0.00000000  0.00000000  1
  O  O76  1  0.80966000  0.00000000  0.11379000  1
  O  O77  1  0.30966000  1.00000000  0.22759000  1
  O  O78  1  0.80799400  0.00827300  0.34343800  1
  O  O79  1  0.31069400  0.96715500  0.45949200  1
  O  O80  1  0.69034000  0.00000000  1.00000000  1
  O  O81  1  0.19034000  1.00000000  0.11379000  1
  O  O82  1  0.69034000  0.00000000  0.22759000  1
  O  O83  1  0.19219700  0.00837500  0.34287200  1
  O  O84  1  0.69280100  0.96529700  0.45896200  1
