# generated using pymatgen
data_MgTiMnVZnCrFeCoCuNiSb20ClO54
_symmetry_space_group_name_H-M   'P 1'
_cell_length_a   6.73643200
_cell_length_b   9.52884600
_cell_length_c   28.85191700
_cell_angle_alpha   89.71165000
_cell_angle_beta   89.99283900
_cell_angle_gamma   89.98979900
_symmetry_Int_Tables_number   1
_chemical_formula_structural   MgTiMnVZnCrFeCoCuNiSb20ClO54
_chemical_formula_sum
'Mg1 Ti1 Mn1 V1 Zn1 Cr1 Fe1 Co1 Cu1 Ni1 Sb20 Cl1 O54'
_cell_volume   1851.99326282
_cell_formula_units_Z   1
loop_
 _symmetry_equiv_pos_site_id
 _symmetry_equiv_pos_as_xyz
  1  'x, y, z'
loop_
 _atom_site_type_symbol
 _atom_site_label
 _atom_site_symmetry_multiplicity
 _atom_site_fract_x
 _atom_site_fract_y
 _atom_site_fract_z
 _atom_site_occupancy
  Mg  Mg0  1  0.99917300  0.16270100  0.65926400  1
  Ti  Ti1  1  1.00000000  0.16768000  0.88621000  1
  Mn  Mn2  1  0.50000000  0.66768000  0.88621000  1
  V  V3  1  1.00000000  1.00000000  0.77241000  1
  Zn  Zn4  1  0.50159400  0.53751400  0.53404300  1
  Cr  Cr5  1  0.50000000  0.33232000  0.88621000  1
  Fe  Fe6  1  0.49916000  0.00113900  0.65997900  1
  Co  Co7  1  0.49796400  0.84922400  0.54813000  1
  Cu  Cu8  1  0.50000000  0.00000000  0.88621000  1
  Ni  Ni9  1  0.99378100  0.30287200  0.55357500  1
  Sb  Sb10  1  0.00000000  0.00000000  0.00000000  1
  Sb  Sb11  1  0.99562700  0.00971900  0.53980300  1
  Sb  Sb12  1  0.50000000  0.50000000  1.00000000  1
  Sb  Sb13  1  1.00000000  0.50000000  0.88621000  1
  Sb  Sb14  1  0.50000000  0.50000000  0.77241000  1
  Sb  Sb15  1  0.99910300  0.49985600  0.65237700  1
  Sb  Sb16  1  1.00000000  0.66768000  1.00000000  1
  Sb  Sb17  1  1.00000000  0.66768000  0.77241000  1
  Sb  Sb18  1  0.49967300  0.67578200  0.65220300  1
  Sb  Sb19  1  0.99962800  0.67171900  0.53829300  1
  Sb  Sb20  1  0.50000000  0.16768000  1.00000000  1
  Sb  Sb21  1  0.50000000  0.16768000  0.77241000  1
  Sb  Sb22  1  0.49520800  0.17797100  0.54536100  1
  Sb  Sb23  1  0.50000000  0.83232000  1.00000000  1
  Sb  Sb24  1  1.00000000  0.83232000  0.88621000  1
  Sb  Sb25  1  0.50000000  0.83232000  0.77241000  1
  Sb  Sb26  1  0.99903200  0.85287300  0.65706300  1
  Sb  Sb27  1  1.00000000  0.33232000  1.00000000  1
  Sb  Sb28  1  1.00000000  0.33232000  0.77241000  1
  Sb  Sb29  1  0.49969700  0.33826100  0.65425800  1
  Cl  Cl30  1  0.48840700  0.44672700  0.46405200  1
  O  O31  1  1.00000000  0.82836000  0.95506000  1
  O  O32  1  0.50000000  0.82836000  0.84126000  1
  O  O33  1  0.00019600  0.84474300  0.72934800  1
  O  O34  1  0.50309500  0.84453600  0.61426600  1
  O  O35  1  0.50000000  0.82836000  0.93115000  1
  O  O36  1  1.00000000  0.82836000  0.81736000  1
  O  O37  1  0.49661600  0.82428200  0.70385800  1
  O  O38  1  0.99624400  0.83776100  0.58666100  1
  O  O39  1  0.69747000  0.32836000  1.00000000  1
  O  O40  1  0.19747000  0.32836000  0.88621000  1
  O  O41  1  0.69747000  0.32836000  0.77241000  1
  O  O42  1  0.19593100  0.34267200  0.65863800  1
  O  O43  1  0.71998100  0.31405200  0.54390200  1
  O  O44  1  0.30253000  0.32836000  1.00000000  1
  O  O45  1  0.80253000  0.32836000  0.88621000  1
  O  O46  1  0.30253000  0.32836000  0.77241000  1
  O  O47  1  0.80267100  0.34236700  0.65892100  1
  O  O48  1  0.26715500  0.31118200  0.54465400  1
  O  O49  1  0.69747000  0.67164000  1.00000000  1
  O  O50  1  0.19747000  0.67164000  0.88621000  1
  O  O51  1  0.69747000  0.67164000  0.77241000  1
  O  O52  1  0.18793700  0.67209400  0.65907800  1
  O  O53  1  0.68718200  0.70378000  0.54296400  1
  O  O54  1  0.30253000  0.67164000  1.00000000  1
  O  O55  1  0.80253000  0.67164000  0.88621000  1
  O  O56  1  0.30253000  0.67164000  0.77241000  1
  O  O57  1  0.81189900  0.67197500  0.65973400  1
  O  O58  1  0.31001100  0.70336800  0.54374600  1
  O  O59  1  1.00000000  0.17164000  0.95506000  1
  O  O60  1  0.50000000  0.17164000  0.84126000  1
  O  O61  1  0.00021600  0.15531300  0.72933600  1
  O  O62  1  0.49852600  0.16919500  0.61503100  1
  O  O63  1  0.50000000  0.17164000  0.93115000  1
  O  O64  1  1.00000000  0.17164000  0.81736000  1
  O  O65  1  0.49736100  0.17897900  0.70299800  1
  O  O66  1  0.99135300  0.13967500  0.59096900  1
  O  O67  1  1.00000000  0.50000000  0.95668000  1
  O  O68  1  0.50000000  0.50000000  0.84289000  1
  O  O69  1  0.00049200  0.50002000  0.72830400  1
  O  O70  1  0.50053900  0.50474600  0.61012900  1
  O  O71  1  0.50000000  0.50000000  0.92952000  1
  O  O72  1  1.00000000  0.50000000  0.81573000  1
  O  O73  1  0.50029700  0.50761800  0.69998200  1
  O  O74  1  0.99350400  0.50860900  0.58415100  1
  O  O75  1  0.69034000  1.00000000  0.00000000  1
  O  O76  1  0.19034000  0.00000000  0.88621000  1
  O  O77  1  0.69034000  1.00000000  0.77241000  1
  O  O78  1  0.20445100  0.99519100  0.66038900  1
  O  O79  1  0.67487700  0.00131900  0.54060800  1
  O  O80  1  0.30966000  0.00000000  0.00000000  1
  O  O81  1  0.80966000  1.00000000  0.88621000  1
  O  O82  1  0.30966000  0.00000000  0.77241000  1
  O  O83  1  0.79380500  0.99512200  0.66150500  1
  O  O84  1  0.31873300  0.00012900  0.54101100  1
