# generated using pymatgen
data_MgTiMnVZnCrFeCoCuNiSb20ClO54
_symmetry_space_group_name_H-M   'P 1'
_cell_length_a   6.71562800
_cell_length_b   9.74729700
_cell_length_c   29.41197400
_cell_angle_alpha   89.96943400
_cell_angle_beta   89.29346400
_cell_angle_gamma   89.60659100
_symmetry_Int_Tables_number   1
_chemical_formula_structural   MgTiMnVZnCrFeCoCuNiSb20ClO54
_chemical_formula_sum
'Mg1 Ti1 Mn1 V1 Zn1 Cr1 Fe1 Co1 Cu1 Ni1 Sb20 Cl1 O54'
_cell_volume   1925.09294080
_cell_formula_units_Z   1
loop_
 _symmetry_equiv_pos_site_id
 _symmetry_equiv_pos_as_xyz
  1  'x, y, z'
loop_
 _atom_site_type_symbol
 _atom_site_label
 _atom_site_symmetry_multiplicity
 _atom_site_fract_x
 _atom_site_fract_y
 _atom_site_fract_z
 _atom_site_occupancy
  Mg  Mg0  1  0.50000000  0.50000000  0.00000000  1
  Ti  Ti1  1  0.50000000  0.50000000  0.77241000  1
  Mn  Mn2  1  0.00000000  0.33232000  0.00000000  1
  V  V3  1  0.56180700  0.20699800  0.55861900  1
  Zn  Zn4  1  0.50010600  0.51878100  0.55958800  1
  Cr  Cr5  1  0.94955800  0.02483600  0.54136700  1
  Fe  Fe6  1  0.00000000  0.66768000  1.00000000  1
  Co  Co7  1  0.51202200  0.64192000  0.66233500  1
  Cu  Cu8  1  0.51204400  0.34273700  0.66356000  1
  Ni  Ni9  1  0.00000000  0.66768000  0.77241000  1
  Sb  Sb10  1  0.00000000  0.00000000  0.00000000  1
  Sb  Sb11  1  0.50000000  1.00000000  0.88621000  1
  Sb  Sb12  1  0.00000000  0.00000000  0.77241000  1
  Sb  Sb13  1  0.51557600  0.00687000  0.66210400  1
  Sb  Sb14  1  0.00000000  0.50000000  0.88621000  1
  Sb  Sb15  1  0.01558200  0.49337100  0.66029500  1
  Sb  Sb16  1  0.50000000  0.66768000  0.88621000  1
  Sb  Sb17  1  0.00952400  0.67844600  0.54036200  1
  Sb  Sb18  1  0.50000000  0.16768000  0.00000000  1
  Sb  Sb19  1  0.00000000  0.16768000  0.88621000  1
  Sb  Sb20  1  0.50000000  0.16768000  0.77241000  1
  Sb  Sb21  1  0.00991800  0.17186800  0.65626300  1
  Sb  Sb22  1  0.50000000  0.83232000  1.00000000  1
  Sb  Sb23  1  0.00000000  0.83232000  0.88621000  1
  Sb  Sb24  1  0.50000000  0.83232000  0.77241000  1
  Sb  Sb25  1  0.01407500  0.81402300  0.65963600  1
  Sb  Sb26  1  0.49691200  0.83189600  0.55318100  1
  Sb  Sb27  1  0.50000000  0.33232000  0.88621000  1
  Sb  Sb28  1  0.00000000  0.33232000  0.77241000  1
  Sb  Sb29  1  0.04061100  0.33252500  0.54053600  1
  Cl  Cl30  1  0.33535200  0.49346100  0.49144100  1
  O  O31  1  0.00000000  0.82836000  0.95506000  1
  O  O32  1  0.50000000  0.82836000  0.84126000  1
  O  O33  1  0.00019600  0.84474300  0.72934800  1
  O  O34  1  0.53695800  0.84896000  0.62028800  1
  O  O35  1  0.50000000  0.82836000  0.93115000  1
  O  O36  1  0.00000000  0.82836000  0.81736000  1
  O  O37  1  0.50697500  0.84393100  0.70410100  1
  O  O38  1  0.96659400  0.86526000  0.57121100  1
  O  O39  1  0.69747000  0.32836000  0.00000000  1
  O  O40  1  0.19747000  0.32836000  0.88621000  1
  O  O41  1  0.69747000  0.32836000  0.77241000  1
  O  O42  1  0.20552000  0.32853200  0.65827500  1
  O  O43  1  0.69754100  0.35325800  0.55280700  1
  O  O44  1  0.30253000  0.32836000  0.00000000  1
  O  O45  1  0.80253000  0.32836000  0.88621000  1
  O  O46  1  0.30253000  0.32836000  0.77241000  1
  O  O47  1  0.82055500  0.33333333  0.65986100  1
  O  O48  1  0.32605000  0.23934500  0.54177100  1
  O  O49  1  0.69747000  0.67164000  0.00000000  1
  O  O50  1  0.19747000  0.67164000  0.88621000  1
  O  O51  1  0.69747000  0.67164000  0.77241000  1
  O  O52  1  0.20932300  0.64736700  0.66548100  1
  O  O53  1  0.68841200  0.67470300  0.55057200  1
  O  O54  1  0.30253000  0.67164000  0.00000000  1
  O  O55  1  0.80253000  0.67164000  0.88621000  1
  O  O56  1  0.30253000  0.67164000  0.77241000  1
  O  O57  1  0.81595100  0.64736000  0.65833700  1
  O  O58  1  0.28865600  0.69577900  0.56818200  1
  O  O59  1  0.00000000  0.17164000  0.95506000  1
  O  O60  1  0.50000000  0.17164000  0.84126000  1
  O  O61  1  0.00021600  0.15531300  0.72933600  1
  O  O62  1  0.54112900  0.15941700  0.61527700  1
  O  O63  1  0.50000000  0.17164000  0.93115000  1
  O  O64  1  0.00000000  0.17164000  0.81736000  1
  O  O65  1  0.50816300  0.16965300  0.70451500  1
  O  O66  1  0.99575300  0.16860300  0.58662800  1
  O  O67  1  0.00000000  0.50000000  0.95668000  1
  O  O68  1  0.50000000  0.50000000  0.84289000  1
  O  O69  1  0.00049200  0.50002000  0.72830400  1
  O  O70  1  0.49733500  0.49706700  0.62397700  1
  O  O71  1  0.50000000  0.50000000  0.92952000  1
  O  O72  1  0.00000000  0.50000000  0.81573000  1
  O  O73  1  0.51082700  0.49977400  0.71356900  1
  O  O74  1  0.03373600  0.49309100  0.58656800  1
  O  O75  1  0.69034000  0.00000000  0.00000000  1
  O  O76  1  0.19034000  1.00000000  0.88621000  1
  O  O77  1  0.69034000  0.00000000  0.77241000  1
  O  O78  1  0.21649000  0.02123800  0.65659600  1
  O  O79  1  0.69161800  0.07966700  0.52853800  1
  O  O80  1  0.30966000  1.00000000  0.00000000  1
  O  O81  1  0.80966000  0.00000000  0.88621000  1
  O  O82  1  0.30966000  1.00000000  0.77241000  1
  O  O83  1  0.81541100  0.01796900  0.66132100  1
  O  O84  1  0.09424900  0.02170400  0.49797900  1
