# generated using pymatgen
data_MgTiMnVZnCrFeCoCuNiSb20ClO54
_symmetry_space_group_name_H-M   'P 1'
_cell_length_a   6.60582400
_cell_length_b   9.58554700
_cell_length_c   29.17041500
_cell_angle_alpha   90.17595200
_cell_angle_beta   89.98177200
_cell_angle_gamma   89.99297000
_symmetry_Int_Tables_number   1
_chemical_formula_structural   MgTiMnVZnCrFeCoCuNiSb20ClO54
_chemical_formula_sum
'Mg1 Ti1 Mn1 V1 Zn1 Cr1 Fe1 Co1 Cu1 Ni1 Sb20 Cl1 O54'
_cell_volume   1847.07459130
_cell_formula_units_Z   1
loop_
 _symmetry_equiv_pos_site_id
 _symmetry_equiv_pos_as_xyz
  1  'x, y, z'
loop_
 _atom_site_type_symbol
 _atom_site_label
 _atom_site_symmetry_multiplicity
 _atom_site_fract_x
 _atom_site_fract_y
 _atom_site_fract_z
 _atom_site_occupancy
  Mg  Mg0  1  0.00000000  0.16768000  0.88621000  1
  Ti  Ti1  1  1.00000000  0.33232000  0.00000000  1
  Mn  Mn2  1  0.50014900  0.16461700  0.54710800  1
  V  V3  1  1.00000000  0.66768000  0.77241000  1
  Zn  Zn4  1  0.50061900  0.44784500  0.53402600  1
  Cr  Cr5  1  0.50000000  0.83232000  0.00000000  1
  Fe  Fe6  1  1.00000000  1.00000000  0.77241000  1
  Co  Co7  1  0.00014000  0.31283900  0.55365400  1
  Cu  Cu8  1  0.00000000  0.83232000  0.88621000  1
  Ni  Ni9  1  0.00010600  0.16447400  0.66192600  1
  Sb  Sb10  1  0.00000000  0.00000000  0.00000000  1
  Sb  Sb11  1  0.50000000  1.00000000  0.88621000  1
  Sb  Sb12  1  0.50049700  0.99728800  0.66053200  1
  Sb  Sb13  1  0.00011100  0.01757800  0.54607300  1
  Sb  Sb14  1  0.50000000  0.50000000  0.00000000  1
  Sb  Sb15  1  0.00000000  0.50000000  0.88621000  1
  Sb  Sb16  1  0.50000000  0.50000000  0.77241000  1
  Sb  Sb17  1  0.00021100  0.49510100  0.65829400  1
  Sb  Sb18  1  0.00000000  0.66768000  0.00000000  1
  Sb  Sb19  1  0.50000000  0.66768000  0.88621000  1
  Sb  Sb20  1  0.50023400  0.66022000  0.62523000  1
  Sb  Sb21  1  0.00018400  0.66501300  0.54921700  1
  Sb  Sb22  1  0.50000000  0.16768000  0.00000000  1
  Sb  Sb23  1  0.50000000  0.16768000  0.77241000  1
  Sb  Sb24  1  0.50000000  0.83232000  0.77241000  1
  Sb  Sb25  1  0.99996800  0.83923700  0.66209600  1
  Sb  Sb26  1  0.49995400  0.83478800  0.53222200  1
  Sb  Sb27  1  0.50000000  0.33232000  0.88621000  1
  Sb  Sb28  1  0.00000000  0.33232000  0.77241000  1
  Sb  Sb29  1  0.50023100  0.33370800  0.65806900  1
  Cl  Cl30  1  0.48755700  0.56444400  0.46963600  1
  O  O31  1  0.00000000  0.82836000  0.95506000  1
  O  O32  1  0.50000000  0.82836000  0.84126000  1
  O  O33  1  0.00019600  0.84474300  0.72934800  1
  O  O34  1  0.50342700  0.86559200  0.60940500  1
  O  O35  1  0.50000000  0.82836000  0.93115000  1
  O  O36  1  1.00000000  0.82836000  0.81736000  1
  O  O37  1  0.50000300  0.83604400  0.70345100  1
  O  O38  1  0.99852400  0.84511000  0.59133200  1
  O  O39  1  0.69747000  0.32836000  0.00000000  1
  O  O40  1  0.19747000  0.32836000  0.88621000  1
  O  O41  1  0.69747000  0.32836000  0.77241000  1
  O  O42  1  0.19391500  0.33379900  0.66149300  1
  O  O43  1  0.72195000  0.30024100  0.53776300  1
  O  O44  1  0.30253000  0.32836000  0.00000000  1
  O  O45  1  0.80253000  0.32836000  0.88621000  1
  O  O46  1  0.30253000  0.32836000  0.77241000  1
  O  O47  1  0.80640000  0.33395500  0.66153900  1
  O  O48  1  0.27777000  0.29974000  0.53803400  1
  O  O49  1  0.69747000  0.67164000  0.00000000  1
  O  O50  1  0.19747000  0.67164000  0.88621000  1
  O  O51  1  0.69747000  0.67164000  0.77241000  1
  O  O52  1  0.19365500  0.66539700  0.65841900  1
  O  O53  1  0.68844900  0.67498500  0.56604900  1
  O  O54  1  0.30253000  0.67164000  0.00000000  1
  O  O55  1  0.80253000  0.67164000  0.88621000  1
  O  O56  1  0.30253000  0.67164000  0.77241000  1
  O  O57  1  0.80632600  0.66523200  0.65832900  1
  O  O58  1  0.31037000  0.67715300  0.56661500  1
  O  O59  1  0.00000000  0.17164000  0.95506000  1
  O  O60  1  0.50000000  0.17164000  0.84126000  1
  O  O61  1  0.00021600  0.15531300  0.72933600  1
  O  O62  1  0.50035700  0.16410800  0.61881900  1
  O  O63  1  0.50000000  0.17164000  0.93115000  1
  O  O64  1  1.00000000  0.17164000  0.81736000  1
  O  O65  1  0.49993900  0.16976000  0.70421200  1
  O  O66  1  0.99890600  0.15874000  0.59501900  1
  O  O67  1  0.00000000  0.50000000  0.95668000  1
  O  O68  1  0.50000000  0.50000000  0.84289000  1
  O  O69  1  0.00049200  0.50002000  0.72830400  1
  O  O70  1  0.50043700  0.45729400  0.60503600  1
  O  O71  1  0.50000000  0.50000000  0.92952000  1
  O  O72  1  0.00000000  0.50000000  0.81573000  1
  O  O73  1  0.49990900  0.49234700  0.70218200  1
  O  O74  1  0.00013300  0.49129200  0.58933200  1
  O  O75  1  0.69034000  0.00000000  0.00000000  1
  O  O76  1  0.19034000  1.00000000  0.88621000  1
  O  O77  1  0.69034000  1.00000000  0.77241000  1
  O  O78  1  0.19714800  0.99905900  0.66053400  1
  O  O79  1  0.68401200  0.01446900  0.54478900  1
  O  O80  1  0.30966000  0.00000000  0.00000000  1
  O  O81  1  0.80966000  1.00000000  0.88621000  1
  O  O82  1  0.30966000  1.00000000  0.77241000  1
  O  O83  1  0.80349000  0.99951200  0.66071300  1
  O  O84  1  0.31647900  0.01412600  0.54530400  1
