# generated using pymatgen
data_MgTiMnVZnCrFeCoCuNiSb20ClO54
_symmetry_space_group_name_H-M   'P 1'
_cell_length_a   6.72507800
_cell_length_b   9.43246100
_cell_length_c   29.53049600
_cell_angle_alpha   89.85140200
_cell_angle_beta   89.93184100
_cell_angle_gamma   89.99374600
_symmetry_Int_Tables_number   1
_chemical_formula_structural   MgTiMnVZnCrFeCoCuNiSb20ClO54
_chemical_formula_sum
'Mg1 Ti1 Mn1 V1 Zn1 Cr1 Fe1 Co1 Cu1 Ni1 Sb20 Cl1 O54'
_cell_volume   1873.23090906
_cell_formula_units_Z   1
loop_
 _symmetry_equiv_pos_site_id
 _symmetry_equiv_pos_as_xyz
  1  'x, y, z'
loop_
 _atom_site_type_symbol
 _atom_site_label
 _atom_site_symmetry_multiplicity
 _atom_site_fract_x
 _atom_site_fract_y
 _atom_site_fract_z
 _atom_site_occupancy
  Mg  Mg0  1  0.50000000  0.50000000  0.00000000  1
  Ti  Ti1  1  0.50000000  0.16768000  0.00000000  1
  Mn  Mn2  1  0.50000000  0.83232000  0.22759000  1
  V  V3  1  0.99888100  0.86392000  0.34021100  1
  Zn  Zn4  1  0.50070200  0.49594000  0.44582000  1
  Cr  Cr5  1  0.99926300  0.16903300  0.33883100  1
  Fe  Fe6  1  0.50000000  0.00000000  0.11379000  1
  Co  Co7  1  0.49686300  0.33512900  0.33283700  1
  Cu  Cu8  1  0.50000000  0.66768000  0.11379000  1
  Ni  Ni9  1  0.49693500  0.99674100  0.33341100  1
  Sb  Sb10  1  0.00000000  0.00000000  0.00000000  1
  Sb  Sb11  1  0.00000000  0.00000000  0.22759000  1
  Sb  Sb12  1  0.00167000  0.00162700  0.45163800  1
  Sb  Sb13  1  1.00000000  0.50000000  0.11379000  1
  Sb  Sb14  1  0.50000000  0.50000000  0.22759000  1
  Sb  Sb15  1  0.99898300  0.49767500  0.34195900  1
  Sb  Sb16  1  1.00000000  0.66768000  0.00000000  1
  Sb  Sb17  1  1.00000000  0.66768000  0.22759000  1
  Sb  Sb18  1  0.49944100  0.66898700  0.34078100  1
  Sb  Sb19  1  0.99420200  0.66828500  0.45288800  1
  Sb  Sb20  1  0.00000000  0.16768000  0.11379000  1
  Sb  Sb21  1  0.50000000  0.16768000  0.22759000  1
  Sb  Sb22  1  0.49977900  0.17444000  0.43358700  1
  Sb  Sb23  1  0.50000000  0.83232000  0.00000000  1
  Sb  Sb24  1  1.00000000  0.83232000  0.11379000  1
  Sb  Sb25  1  0.50250800  0.80907500  0.45145300  1
  Sb  Sb26  1  0.00000000  0.33232000  0.00000000  1
  Sb  Sb27  1  0.50000000  0.33232000  0.11379000  1
  Sb  Sb28  1  0.00000000  0.33232000  0.22759000  1
  Sb  Sb29  1  0.99898000  0.32393900  0.45619000  1
  Cl  Cl30  1  0.54357600  0.56494200  0.52077300  1
  O  O31  1  1.00000000  0.82836000  0.04494000  1
  O  O32  1  0.50000000  0.82836000  0.15874000  1
  O  O33  1  0.99980400  0.84474300  0.27065200  1
  O  O34  1  0.49334700  0.84044500  0.38044900  1
  O  O35  1  0.50000000  0.82836000  0.06885000  1
  O  O36  1  1.00000000  0.82836000  0.18264000  1
  O  O37  1  0.49935600  0.82583600  0.29343500  1
  O  O38  1  0.00316200  0.84238800  0.40397800  1
  O  O39  1  0.30253000  0.32836000  0.00000000  1
  O  O40  1  0.80253000  0.32836000  0.11379000  1
  O  O41  1  0.30253000  0.32836000  0.22759000  1
  O  O42  1  0.80755400  0.33062400  0.33627100  1
  O  O43  1  0.31080700  0.32291700  0.45077500  1
  O  O44  1  0.69747000  0.32836000  0.00000000  1
  O  O45  1  0.19747000  0.32836000  0.11379000  1
  O  O46  1  0.69747000  0.32836000  0.22759000  1
  O  O47  1  0.19049900  0.33033400  0.33478800  1
  O  O48  1  0.69217700  0.32427900  0.44581500  1
  O  O49  1  0.30253000  0.67164000  0.00000000  1
  O  O50  1  0.80253000  0.67164000  0.11379000  1
  O  O51  1  0.30253000  0.67164000  0.22759000  1
  O  O52  1  0.81351700  0.67087500  0.33615900  1
  O  O53  1  0.29070000  0.66018500  0.43547700  1
  O  O54  1  0.69747000  0.67164000  0.00000000  1
  O  O55  1  0.19747000  0.67164000  0.11379000  1
  O  O56  1  0.69747000  0.67164000  0.22759000  1
  O  O57  1  0.18433500  0.67116700  0.33680400  1
  O  O58  1  0.70782600  0.66185400  0.42929200  1
  O  O59  1  0.00000000  0.17164000  0.04494000  1
  O  O60  1  0.50000000  0.17164000  0.15874000  1
  O  O61  1  0.99978400  0.15531300  0.27066400  1
  O  O62  1  0.49205400  0.17304700  0.36949400  1
  O  O63  1  0.50000000  0.17164000  0.06885000  1
  O  O64  1  0.00000000  0.17164000  0.18264000  1
  O  O65  1  0.50265300  0.17201100  0.29276400  1
  O  O66  1  0.00558200  0.16865500  0.40637100  1
  O  O67  1  1.00000000  0.50000000  0.04332000  1
  O  O68  1  0.50000000  0.50000000  0.15711000  1
  O  O69  1  0.99950800  0.50002000  0.27169600  1
  O  O70  1  0.49422800  0.48480300  0.37489700  1
  O  O71  1  0.50000000  0.50000000  0.07048000  1
  O  O72  1  1.00000000  0.50000000  0.18427000  1
  O  O73  1  0.49991600  0.49644200  0.29386000  1
  O  O74  1  0.00449400  0.48856900  0.41088400  1
  O  O75  1  0.30966000  0.00000000  0.00000000  1
  O  O76  1  0.80966000  0.00000000  0.11379000  1
  O  O77  1  0.30966000  0.00000000  0.22759000  1
  O  O78  1  0.81335700  0.99085400  0.33746900  1
  O  O79  1  0.31129200  0.01872700  0.44739600  1
  O  O80  1  0.69034000  0.00000000  0.00000000  1
  O  O81  1  0.19034000  0.00000000  0.11379000  1
  O  O82  1  0.69034000  0.00000000  0.22759000  1
  O  O83  1  0.18314900  0.99166700  0.33646200  1
  O  O84  1  0.69245100  0.02111900  0.44608800  1
