# generated using pymatgen
data_MgTiMnVZnCrFeCoCuNiSb20ClO54
_symmetry_space_group_name_H-M   'P 1'
_cell_length_a   6.66133700
_cell_length_b   9.55516400
_cell_length_c   29.04668500
_cell_angle_alpha   90.21364900
_cell_angle_beta   89.96714800
_cell_angle_gamma   89.99513400
_symmetry_Int_Tables_number   1
_chemical_formula_structural   MgTiMnVZnCrFeCoCuNiSb20ClO54
_chemical_formula_sum
'Mg1 Ti1 Mn1 V1 Zn1 Cr1 Fe1 Co1 Cu1 Ni1 Sb20 Cl1 O54'
_cell_volume   1848.81320097
_cell_formula_units_Z   1
loop_
 _symmetry_equiv_pos_site_id
 _symmetry_equiv_pos_as_xyz
  1  'x, y, z'
loop_
 _atom_site_type_symbol
 _atom_site_label
 _atom_site_symmetry_multiplicity
 _atom_site_fract_x
 _atom_site_fract_y
 _atom_site_fract_z
 _atom_site_occupancy
  Mg  Mg0  1  0.00000000  0.33232000  0.22759000  1
  Ti  Ti1  1  0.50000000  0.16768000  0.22759000  1
  Mn  Mn2  1  0.00000000  0.00000000  0.22759000  1
  V  V3  1  0.99959700  0.82493100  0.34074700  1
  Zn  Zn4  1  0.49957500  0.51806900  0.45327600  1
  Cr  Cr5  1  0.49987300  0.66582600  0.33699300  1
  Fe  Fe6  1  0.00000000  0.16768000  0.11379000  1
  Co  Co7  1  0.00000000  0.50000000  0.11379000  1
  Cu  Cu8  1  0.99900600  0.98403900  0.44724700  1
  Ni  Ni9  1  0.00000000  0.66768000  0.00000000  1
  Sb  Sb10  1  0.00000000  0.00000000  0.00000000  1
  Sb  Sb11  1  0.50000000  1.00000000  0.11379000  1
  Sb  Sb12  1  0.49924100  0.00005000  0.33667700  1
  Sb  Sb13  1  0.50000000  0.50000000  0.00000000  1
  Sb  Sb14  1  0.50000000  0.50000000  0.22759000  1
  Sb  Sb15  1  0.99854600  0.50894100  0.33928300  1
  Sb  Sb16  1  1.00000000  0.33232000  0.00000000  1
  Sb  Sb17  1  0.50000000  0.33232000  0.11379000  1
  Sb  Sb18  1  0.49751400  0.34176000  0.35971900  1
  Sb  Sb19  1  0.99929100  0.32841100  0.44815900  1
  Sb  Sb20  1  0.50000000  0.83232000  0.00000000  1
  Sb  Sb21  1  0.00000000  0.83232000  0.11379000  1
  Sb  Sb22  1  0.50000000  0.83232000  0.22759000  1
  Sb  Sb23  1  0.49984300  0.84626300  0.44651800  1
  Sb  Sb24  1  0.50000000  0.16768000  0.00000000  1
  Sb  Sb25  1  0.99879800  0.15966300  0.33723100  1
  Sb  Sb26  1  0.49691300  0.18869500  0.46245500  1
  Sb  Sb27  1  0.50000000  0.66768000  0.11379000  1
  Sb  Sb28  1  0.00000000  0.66768000  0.22759000  1
  Sb  Sb29  1  0.99969600  0.69273900  0.45912200  1
  Cl  Cl30  1  0.48371700  0.43470300  0.52590200  1
  O  O31  1  1.00000000  0.17164000  0.04494000  1
  O  O32  1  0.50000000  0.17164000  0.15874000  1
  O  O33  1  0.00019600  0.15525700  0.27065200  1
  O  O34  1  0.50085000  0.13752800  0.38773200  1
  O  O35  1  0.50000000  0.17164000  0.06885000  1
  O  O36  1  0.00000000  0.17164000  0.18264000  1
  O  O37  1  0.49888200  0.16254900  0.29635200  1
  O  O38  1  0.99865100  0.16016300  0.40591500  1
  O  O39  1  0.69747000  0.67164000  0.00000000  1
  O  O40  1  0.19747000  0.67164000  0.11379000  1
  O  O41  1  0.69747000  0.67164000  0.22759000  1
  O  O42  1  0.19347300  0.67328500  0.33607700  1
  O  O43  1  0.68813400  0.69175200  0.45660600  1
  O  O44  1  0.30253000  0.67164000  0.00000000  1
  O  O45  1  0.80253000  0.67164000  0.11379000  1
  O  O46  1  0.30253000  0.67164000  0.22759000  1
  O  O47  1  0.80553200  0.67336600  0.33541700  1
  O  O48  1  0.30970700  0.69182600  0.45467500  1
  O  O49  1  0.69747000  0.32836000  0.00000000  1
  O  O50  1  0.19747000  0.32836000  0.11379000  1
  O  O51  1  0.69747000  0.32836000  0.22759000  1
  O  O52  1  0.18668300  0.33496400  0.33848400  1
  O  O53  1  0.68835600  0.33484400  0.43149700  1
  O  O54  1  0.30253000  0.32836000  0.00000000  1
  O  O55  1  0.80253000  0.32836000  0.11379000  1
  O  O56  1  0.30253000  0.32836000  0.22759000  1
  O  O57  1  0.81073000  0.33522200  0.33945300  1
  O  O58  1  0.31030300  0.33539300  0.42953700  1
  O  O59  1  1.00000000  0.82836000  0.04494000  1
  O  O60  1  0.50000000  0.82836000  0.15874000  1
  O  O61  1  0.00021600  0.84468700  0.27066400  1
  O  O62  1  0.50110700  0.83464700  0.37879400  1
  O  O63  1  0.50000000  0.82836000  0.06885000  1
  O  O64  1  0.00000000  0.82836000  0.18264000  1
  O  O65  1  0.49801400  0.83025000  0.29536100  1
  O  O66  1  0.99678000  0.81523000  0.40147900  1
  O  O67  1  0.00000000  0.50000000  0.04332000  1
  O  O68  1  0.50000000  0.50000000  0.15711000  1
  O  O69  1  0.00049200  0.49998000  0.27169600  1
  O  O70  1  0.50299800  0.54055300  0.38351100  1
  O  O71  1  0.50000000  0.50000000  0.07048000  1
  O  O72  1  0.00000000  0.50000000  0.18427000  1
  O  O73  1  0.49844000  0.51290500  0.29666200  1
  O  O74  1  0.99739700  0.51478800  0.41048200  1
  O  O75  1  0.69034000  0.00000000  1.00000000  1
  O  O76  1  0.19034000  1.00000000  0.11379000  1
  O  O77  1  0.69034000  0.00000000  0.22759000  1
  O  O78  1  0.19160100  0.99138400  0.33932300  1
  O  O79  1  0.70885300  0.98931600  0.45814400  1
  O  O80  1  0.30966000  0.00000000  1.00000000  1
  O  O81  1  0.80966000  1.00000000  0.11379000  1
  O  O82  1  0.30966000  0.00000000  0.22759000  1
  O  O83  1  0.80691300  0.99118900  0.33891100  1
  O  O84  1  0.28913500  0.98878400  0.45774200  1
