# generated using pymatgen
data_MgTiMnVZnCrFeCoCuNiSb20ClO54
_symmetry_space_group_name_H-M   'P 1'
_cell_length_a   6.74107500
_cell_length_b   9.60782200
_cell_length_c   29.45475700
_cell_angle_alpha   90.33247200
_cell_angle_beta   89.98351100
_cell_angle_gamma   89.90684100
_symmetry_Int_Tables_number   1
_chemical_formula_structural   MgTiMnVZnCrFeCoCuNiSb20ClO54
_chemical_formula_sum
'Mg1 Ti1 Mn1 V1 Zn1 Cr1 Fe1 Co1 Cu1 Ni1 Sb20 Cl1 O54'
_cell_volume   1907.66295725
_cell_formula_units_Z   1
loop_
 _symmetry_equiv_pos_site_id
 _symmetry_equiv_pos_as_xyz
  1  'x, y, z'
loop_
 _atom_site_type_symbol
 _atom_site_label
 _atom_site_symmetry_multiplicity
 _atom_site_fract_x
 _atom_site_fract_y
 _atom_site_fract_z
 _atom_site_occupancy
  Mg  Mg0  1  0.50323500  0.83760900  0.44771800  1
  Ti  Ti1  1  0.01881400  0.18909600  0.33775600  1
  Mn  Mn2  1  0.00000000  0.33232000  0.22759000  1
  V  V3  1  0.99410000  0.88126500  0.33907600  1
  Zn  Zn4  1  0.50869500  0.47194900  0.44072200  1
  Cr  Cr5  1  0.50000000  0.66768000  0.11379000  1
  Fe  Fe6  1  0.50000000  0.50000000  0.22759000  1
  Co  Co7  1  0.00000000  0.33232000  1.00000000  1
  Cu  Cu8  1  0.49747500  0.99327400  0.33577100  1
  Ni  Ni9  1  0.50700300  0.33806700  0.33280800  1
  Sb  Sb10  1  0.00000000  0.00000000  0.00000000  1
  Sb  Sb11  1  0.50000000  1.00000000  0.11379000  1
  Sb  Sb12  1  0.00000000  1.00000000  0.22759000  1
  Sb  Sb13  1  0.00192900  0.94574300  0.45545600  1
  Sb  Sb14  1  0.50000000  0.50000000  1.00000000  1
  Sb  Sb15  1  0.00000000  0.50000000  0.11379000  1
  Sb  Sb16  1  0.99679000  0.51001700  0.34080700  1
  Sb  Sb17  1  0.00000000  0.66768000  1.00000000  1
  Sb  Sb18  1  1.00000000  0.66768000  0.22759000  1
  Sb  Sb19  1  0.49919600  0.66364500  0.33844800  1
  Sb  Sb20  1  0.01037700  0.62335800  0.47515600  1
  Sb  Sb21  1  0.50000000  0.16768000  1.00000000  1
  Sb  Sb22  1  0.00000000  0.16768000  0.11379000  1
  Sb  Sb23  1  0.50000000  0.16768000  0.22759000  1
  Sb  Sb24  1  0.49870700  0.15813500  0.43446500  1
  Sb  Sb25  1  0.50000000  0.83232000  1.00000000  1
  Sb  Sb26  1  0.00000000  0.83232000  0.11379000  1
  Sb  Sb27  1  0.50000000  0.83232000  0.22759000  1
  Sb  Sb28  1  0.50000000  0.33232000  0.11379000  1
  Sb  Sb29  1  0.00190800  0.30060500  0.45019700  1
  Cl  Cl30  1  0.52750800  0.57904700  0.50618000  1
  O  O31  1  0.00000000  0.82836000  0.04494000  1
  O  O32  1  0.50000000  0.82836000  0.15874000  1
  O  O33  1  0.99980400  0.84474300  0.27065200  1
  O  O34  1  0.50022700  0.82127800  0.38041400  1
  O  O35  1  0.50000000  0.82836000  0.06885000  1
  O  O36  1  1.00000000  0.82836000  0.18264000  1
  O  O37  1  0.49710400  0.83111900  0.29387100  1
  O  O38  1  0.00462100  0.84969700  0.39600400  1
  O  O39  1  0.30253000  0.32836000  1.00000000  1
  O  O40  1  0.80253000  0.32836000  0.11379000  1
  O  O41  1  0.30253000  0.32836000  0.22759000  1
  O  O42  1  0.81774800  0.33906100  0.33662000  1
  O  O43  1  0.31364800  0.31512000  0.44762700  1
  O  O44  1  0.69747000  0.32836000  1.00000000  1
  O  O45  1  0.19747000  0.32836000  0.11379000  1
  O  O46  1  0.69747000  0.32836000  0.22759000  1
  O  O47  1  0.18999800  0.34326300  0.33740000  1
  O  O48  1  0.69231200  0.30818000  0.44551000  1
  O  O49  1  0.30253000  0.67164000  1.00000000  1
  O  O50  1  0.80253000  0.67164000  0.11379000  1
  O  O51  1  0.30253000  0.67164000  0.22759000  1
  O  O52  1  0.80881700  0.67321200  0.33598800  1
  O  O53  1  0.20578200  0.77131900  0.46606900  1
  O  O54  1  0.69747000  0.67164000  1.00000000  1
  O  O55  1  0.19747000  0.67164000  0.11379000  1
  O  O56  1  0.69747000  0.67164000  0.22759000  1
  O  O57  1  0.19215100  0.66717900  0.33605500  1
  O  O58  1  0.80988400  0.76869900  0.46657800  1
  O  O59  1  0.00000000  0.17164000  0.04494000  1
  O  O60  1  0.50000000  0.17164000  0.15874000  1
  O  O61  1  0.99978400  0.15531300  0.27066400  1
  O  O62  1  0.48778200  0.16688700  0.36995100  1
  O  O63  1  0.50000000  0.17164000  0.06885000  1
  O  O64  1  1.00000000  0.17164000  0.18264000  1
  O  O65  1  0.50095600  0.16251800  0.29290800  1
  O  O66  1  0.00852400  0.16009000  0.40075700  1
  O  O67  1  0.00000000  0.50000000  0.04332000  1
  O  O68  1  0.50000000  0.50000000  0.15711000  1
  O  O69  1  0.99950800  0.50002000  0.27169600  1
  O  O70  1  0.50416500  0.49993200  0.37789600  1
  O  O71  1  0.50000000  0.50000000  0.07048000  1
  O  O72  1  0.00000000  0.50000000  0.18427000  1
  O  O73  1  0.50649400  0.50600600  0.29225100  1
  O  O74  1  0.99549500  0.49449500  0.41337100  1
  O  O75  1  0.30966000  0.00000000  0.00000000  1
  O  O76  1  0.80966000  1.00000000  0.11379000  1
  O  O77  1  0.30966000  0.00000000  0.22759000  1
  O  O78  1  0.81222800  0.00194800  0.33552200  1
  O  O79  1  0.31371200  0.01452900  0.45379100  1
  O  O80  1  0.69034000  1.00000000  1.00000000  1
  O  O81  1  0.19034000  0.00000000  0.11379000  1
  O  O82  1  0.69034000  1.00000000  0.22759000  1
  O  O83  1  0.17924300  0.00497600  0.33376600  1
  O  O84  1  0.68732500  0.00949200  0.44901700  1
