# generated using pymatgen
data_MgTiMnVZnCrFeCoCuNiSb20ClO54
_symmetry_space_group_name_H-M   'P 1'
_cell_length_a   6.69409800
_cell_length_b   9.58537100
_cell_length_c   29.50292400
_cell_angle_alpha   89.80151900
_cell_angle_beta   89.87874100
_cell_angle_gamma   89.93366800
_symmetry_Int_Tables_number   1
_chemical_formula_structural   MgTiMnVZnCrFeCoCuNiSb20ClO54
_chemical_formula_sum
'Mg1 Ti1 Mn1 V1 Zn1 Cr1 Fe1 Co1 Cu1 Ni1 Sb20 Cl1 O54'
_cell_volume   1893.05044763
_cell_formula_units_Z   1
loop_
 _symmetry_equiv_pos_site_id
 _symmetry_equiv_pos_as_xyz
  1  'x, y, z'
loop_
 _atom_site_type_symbol
 _atom_site_label
 _atom_site_symmetry_multiplicity
 _atom_site_fract_x
 _atom_site_fract_y
 _atom_site_fract_z
 _atom_site_occupancy
  Mg  Mg0  1  0.00000000  0.66768000  0.00000000  1
  Ti  Ti1  1  0.99568600  0.99534300  0.42221300  1
  Mn  Mn2  1  0.00000000  0.16768000  0.11379000  1
  V  V3  1  0.01642000  0.15802400  0.33918700  1
  Zn  Zn4  1  0.50932000  0.49563300  0.44633300  1
  Cr  Cr5  1  0.52132300  0.00856300  0.33769800  1
  Fe  Fe6  1  0.50679300  0.32469000  0.33928700  1
  Co  Co7  1  0.97534800  0.82352100  0.33455300  1
  Cu  Cu8  1  0.50000000  0.83232000  1.00000000  1
  Ni  Ni9  1  0.00000000  0.83232000  0.11379000  1
  Sb  Sb10  1  0.00000000  0.00000000  0.00000000  1
  Sb  Sb11  1  0.50000000  1.00000000  0.11379000  1
  Sb  Sb12  1  0.00000000  0.00000000  0.22759000  1
  Sb  Sb13  1  0.50000000  0.50000000  0.00000000  1
  Sb  Sb14  1  0.00000000  0.50000000  0.11379000  1
  Sb  Sb15  1  0.50000000  0.50000000  0.22759000  1
  Sb  Sb16  1  0.98653300  0.48845700  0.34206300  1
  Sb  Sb17  1  0.00000000  0.33232000  0.00000000  1
  Sb  Sb18  1  0.50000000  0.33232000  0.11379000  1
  Sb  Sb19  1  0.00000000  0.33232000  0.22759000  1
  Sb  Sb20  1  0.00505300  0.32067500  0.45645000  1
  Sb  Sb21  1  0.50000000  0.83232000  0.22759000  1
  Sb  Sb22  1  0.52327500  0.81664600  0.45285600  1
  Sb  Sb23  1  0.50000000  0.16768000  0.00000000  1
  Sb  Sb24  1  0.50000000  0.16768000  0.22759000  1
  Sb  Sb25  1  0.49898000  0.16880300  0.44912600  1
  Sb  Sb26  1  0.50000000  0.66768000  0.11379000  1
  Sb  Sb27  1  0.00000000  0.66768000  0.22759000  1
  Sb  Sb28  1  0.47979700  0.66558200  0.34886600  1
  Sb  Sb29  1  0.03285400  0.67647000  0.44745000  1
  Cl  Cl30  1  0.42782800  0.58746700  0.51700000  1
  O  O31  1  0.00000000  0.17164000  0.04494000  1
  O  O32  1  0.50000000  0.17164000  0.15874000  1
  O  O33  1  0.00019600  0.15525700  0.27065200  1
  O  O34  1  0.51200700  0.15954100  0.38003800  1
  O  O35  1  0.50000000  0.17164000  0.06885000  1
  O  O36  1  0.00000000  0.17164000  0.18264000  1
  O  O37  1  0.50291800  0.16701900  0.29374400  1
  O  O38  1  0.98901900  0.18792700  0.40201400  1
  O  O39  1  0.69747000  0.67164000  0.00000000  1
  O  O40  1  0.19747000  0.67164000  0.11379000  1
  O  O41  1  0.69747000  0.67164000  0.22759000  1
  O  O42  1  0.17968900  0.65336100  0.33207600  1
  O  O43  1  0.72318200  0.66598100  0.44029900  1
  O  O44  1  0.30253000  0.67164000  0.00000000  1
  O  O45  1  0.80253000  0.67164000  0.11379000  1
  O  O46  1  0.30253000  0.67164000  0.22759000  1
  O  O47  1  0.79368000  0.65575900  0.33632000  1
  O  O48  1  0.33838700  0.66906900  0.41873700  1
  O  O49  1  0.69747000  0.32836000  1.00000000  1
  O  O50  1  0.19747000  0.32836000  0.11379000  1
  O  O51  1  0.69747000  0.32836000  0.22759000  1
  O  O52  1  0.18271200  0.32316800  0.33531600  1
  O  O53  1  0.69521100  0.32855000  0.44883700  1
  O  O54  1  0.30253000  0.32836000  1.00000000  1
  O  O55  1  0.80253000  0.32836000  0.11379000  1
  O  O56  1  0.30253000  0.32836000  0.22759000  1
  O  O57  1  0.81009600  0.32381500  0.33230100  1
  O  O58  1  0.30682200  0.32688600  0.44230200  1
  O  O59  1  0.00000000  0.82836000  0.04494000  1
  O  O60  1  0.50000000  0.82836000  0.15874000  1
  O  O61  1  0.00021600  0.84468700  0.27066400  1
  O  O62  1  0.52680300  0.85758300  0.37997700  1
  O  O63  1  0.50000000  0.82836000  0.06885000  1
  O  O64  1  0.00000000  0.82836000  0.18264000  1
  O  O65  1  0.49640600  0.83417100  0.29607100  1
  O  O66  1  0.00460400  0.81558300  0.39642600  1
  O  O67  1  0.00000000  0.50000000  0.04332000  1
  O  O68  1  0.50000000  0.50000000  0.15711000  1
  O  O69  1  0.00049200  0.49998000  0.27169600  1
  O  O70  1  0.52091500  0.47896100  0.37669200  1
  O  O71  1  0.50000000  0.50000000  0.07048000  1
  O  O72  1  0.00000000  0.50000000  0.18427000  1
  O  O73  1  0.49465500  0.50247100  0.29391900  1
  O  O74  1  0.00821400  0.49065300  0.41058000  1
  O  O75  1  0.69034000  0.00000000  1.00000000  1
  O  O76  1  0.19034000  1.00000000  0.11379000  1
  O  O77  1  0.69034000  0.00000000  0.22759000  1
  O  O78  1  0.20673400  0.03560100  0.34069700  1
  O  O79  1  0.77525000  0.97709300  0.45569700  1
  O  O80  1  0.30966000  1.00000000  1.00000000  1
  O  O81  1  0.80966000  0.00000000  0.11379000  1
  O  O82  1  0.30966000  1.00000000  0.22759000  1
  O  O83  1  0.81590300  0.02268300  0.33914500  1
  O  O84  1  0.20604600  0.99481000  0.45630100  1
