# generated using pymatgen
data_MgTiMnVZnCrFeCoCuNiSb20ClO54
_symmetry_space_group_name_H-M   'P 1'
_cell_length_a   6.61133000
_cell_length_b   9.59904300
_cell_length_c   29.00748700
_cell_angle_alpha   90.12691300
_cell_angle_beta   89.83246200
_cell_angle_gamma   89.85829200
_symmetry_Int_Tables_number   1
_chemical_formula_structural   MgTiMnVZnCrFeCoCuNiSb20ClO54
_chemical_formula_sum
'Mg1 Ti1 Mn1 V1 Zn1 Cr1 Fe1 Co1 Cu1 Ni1 Sb20 Cl1 O54'
_cell_volume   1840.86788494
_cell_formula_units_Z   1
loop_
 _symmetry_equiv_pos_site_id
 _symmetry_equiv_pos_as_xyz
  1  'x, y, z'
loop_
 _atom_site_type_symbol
 _atom_site_label
 _atom_site_symmetry_multiplicity
 _atom_site_fract_x
 _atom_site_fract_y
 _atom_site_fract_z
 _atom_site_occupancy
  Mg  Mg0  1  0.50564300  0.15543100  0.54072100  1
  Ti  Ti1  1  0.50000000  0.83232000  0.77241000  1
  Mn  Mn2  1  1.00000000  0.50000000  0.88621000  1
  V  V3  1  0.00000000  0.00000000  0.00000000  1
  Zn  Zn4  1  0.48616600  0.47163400  0.54293800  1
  Cr  Cr5  1  0.50000000  0.00000000  0.88621000  1
  Fe  Fe6  1  0.01049200  0.98732700  0.54298000  1
  Co  Co7  1  0.50000000  0.50000000  0.77241000  1
  Cu  Cu8  1  0.00000000  0.66768000  1.00000000  1
  Ni  Ni9  1  0.50000000  0.50000000  1.00000000  1
  Sb  Sb10  1  0.00000000  0.00000000  0.77241000  1
  Sb  Sb11  1  0.50030500  0.99192500  0.65906800  1
  Sb  Sb12  1  0.00540400  0.49957600  0.65249100  1
  Sb  Sb13  1  1.00000000  0.33232000  1.00000000  1
  Sb  Sb14  1  0.50000000  0.33232000  0.88621000  1
  Sb  Sb15  1  0.00000000  0.33232000  0.77241000  1
  Sb  Sb16  1  0.50060800  0.32818500  0.66175900  1
  Sb  Sb17  1  0.99835800  0.31739400  0.52117500  1
  Sb  Sb18  1  0.50000000  0.83232000  1.00000000  1
  Sb  Sb19  1  0.00000000  0.83232000  0.88621000  1
  Sb  Sb20  1  0.00332500  0.82876200  0.65731500  1
  Sb  Sb21  1  0.50808600  0.82627800  0.53817800  1
  Sb  Sb22  1  0.50000000  0.16768000  1.00000000  1
  Sb  Sb23  1  0.00000000  0.16768000  0.88621000  1
  Sb  Sb24  1  0.50000000  0.16768000  0.77241000  1
  Sb  Sb25  1  0.00201700  0.16754300  0.64743500  1
  Sb  Sb26  1  0.50000000  0.66768000  0.88621000  1
  Sb  Sb27  1  0.00000000  0.66768000  0.77241000  1
  Sb  Sb28  1  0.50469900  0.65459400  0.64505400  1
  Sb  Sb29  1  0.99982900  0.67941700  0.53596800  1
  Cl  Cl30  1  0.53123600  0.75077600  0.45973200  1
  O  O31  1  0.00000000  0.17164000  0.95506000  1
  O  O32  1  0.50000000  0.17164000  0.84126000  1
  O  O33  1  0.99980400  0.15525700  0.72934800  1
  O  O34  1  0.49876500  0.16147500  0.61814100  1
  O  O35  1  0.50000000  0.17164000  0.93115000  1
  O  O36  1  0.00000000  0.17164000  0.81736000  1
  O  O37  1  0.50398700  0.15591200  0.70418100  1
  O  O38  1  0.00222400  0.16489600  0.57052400  1
  O  O39  1  0.30253000  0.67164000  1.00000000  1
  O  O40  1  0.80253000  0.67164000  0.88621000  1
  O  O41  1  0.30253000  0.67164000  0.77241000  1
  O  O42  1  0.81376000  0.67520000  0.66807500  1
  O  O43  1  0.31836000  0.66614200  0.55322800  1
  O  O44  1  0.69747000  0.67164000  1.00000000  1
  O  O45  1  0.19747000  0.67164000  0.88621000  1
  O  O46  1  0.69747000  0.67164000  0.77241000  1
  O  O47  1  0.19668400  0.67551500  0.66724300  1
  O  O48  1  0.69995400  0.67513300  0.55946700  1
  O  O49  1  0.30253000  0.32836000  1.00000000  1
  O  O50  1  0.80253000  0.32836000  0.88621000  1
  O  O51  1  0.30253000  0.32836000  0.77241000  1
  O  O52  1  0.79670700  0.32694000  0.66739600  1
  O  O53  1  0.30417400  0.31330800  0.52865200  1
  O  O54  1  0.69747000  0.32836000  1.00000000  1
  O  O55  1  0.19747000  0.32836000  0.88621000  1
  O  O56  1  0.69747000  0.32836000  0.77241000  1
  O  O57  1  0.20538200  0.32422900  0.67081000  1
  O  O58  1  0.69072600  0.32216900  0.53005600  1
  O  O59  1  1.00000000  0.82836000  0.95506000  1
  O  O60  1  0.50000000  0.82836000  0.84126000  1
  O  O61  1  0.99978400  0.84468700  0.72933600  1
  O  O62  1  0.48886400  0.87083500  0.60635700  1
  O  O63  1  0.50000000  0.82836000  0.93115000  1
  O  O64  1  1.00000000  0.82836000  0.81736000  1
  O  O65  1  0.50194300  0.84722200  0.70694500  1
  O  O66  1  0.01468100  0.83228700  0.58947400  1
  O  O67  1  1.00000000  0.50000000  0.95668000  1
  O  O68  1  0.50000000  0.50000000  0.84289000  1
  O  O69  1  0.99950800  0.49998000  0.72830400  1
  O  O70  1  0.48942800  0.46038000  0.61147200  1
  O  O71  1  0.50000000  0.50000000  0.92952000  1
  O  O72  1  1.00000000  0.50000000  0.81573000  1
  O  O73  1  0.50298000  0.49504100  0.70324500  1
  O  O74  1  0.00472900  0.48897500  0.56232600  1
  O  O75  1  0.30966000  1.00000000  1.00000000  1
  O  O76  1  0.80966000  0.00000000  0.88621000  1
  O  O77  1  0.30966000  1.00000000  0.77241000  1
  O  O78  1  0.80145300  0.98336800  0.66041900  1
  O  O79  1  0.30127600  0.97925900  0.52963000  1
  O  O80  1  0.69034000  0.00000000  0.00000000  1
  O  O81  1  0.19034000  1.00000000  0.88621000  1
  O  O82  1  0.69034000  0.00000000  0.77241000  1
  O  O83  1  0.19981800  0.98435700  0.66438800  1
  O  O84  1  0.71618500  0.98013900  0.53195800  1
