# generated using pymatgen
data_MgTiMnVZnCrFeCoCuNiSb20ClO54
_symmetry_space_group_name_H-M   'P 1'
_cell_length_a   6.66312200
_cell_length_b   9.64827200
_cell_length_c   29.35620900
_cell_angle_alpha   90.06061200
_cell_angle_beta   89.95477800
_cell_angle_gamma   89.99668400
_symmetry_Int_Tables_number   1
_chemical_formula_structural   MgTiMnVZnCrFeCoCuNiSb20ClO54
_chemical_formula_sum
'Mg1 Ti1 Mn1 V1 Zn1 Cr1 Fe1 Co1 Cu1 Ni1 Sb20 Cl1 O54'
_cell_volume   1887.23896873
_cell_formula_units_Z   1
loop_
 _symmetry_equiv_pos_site_id
 _symmetry_equiv_pos_as_xyz
  1  'x, y, z'
loop_
 _atom_site_type_symbol
 _atom_site_label
 _atom_site_symmetry_multiplicity
 _atom_site_fract_x
 _atom_site_fract_y
 _atom_site_fract_z
 _atom_site_occupancy
  Mg  Mg0  1  0.49972200  0.67228400  0.66226600  1
  Ti  Ti1  1  0.99719000  0.97063300  0.57447600  1
  Mn  Mn2  1  0.50000000  0.16768000  0.77241000  1
  V  V3  1  1.00000000  0.50000000  0.88621000  1
  Zn  Zn4  1  0.49958800  0.50238000  0.55459700  1
  Cr  Cr5  1  0.50000000  0.50000000  0.00000000  1
  Fe  Fe6  1  1.00000000  0.33232000  0.00000000  1
  Co  Co7  1  0.50434700  0.00711900  0.66235400  1
  Cu  Cu8  1  0.00000000  0.66768000  0.00000000  1
  Ni  Ni9  1  0.99995700  0.82281600  0.66326200  1
  Sb  Sb10  1  0.00000000  0.00000000  0.00000000  1
  Sb  Sb11  1  0.50000000  1.00000000  0.88621000  1
  Sb  Sb12  1  0.00000000  1.00000000  0.77241000  1
  Sb  Sb13  1  0.50000000  0.50000000  0.77241000  1
  Sb  Sb14  1  0.99833400  0.51477200  0.65744800  1
  Sb  Sb15  1  0.50000000  0.66768000  0.88621000  1
  Sb  Sb16  1  0.00000000  0.66768000  0.77241000  1
  Sb  Sb17  1  0.00161400  0.66493500  0.54278700  1
  Sb  Sb18  1  0.50000000  0.16768000  1.00000000  1
  Sb  Sb19  1  0.00000000  0.16768000  0.88621000  1
  Sb  Sb20  1  0.99918000  0.15786900  0.65950800  1
  Sb  Sb21  1  0.49751500  0.19022700  0.54705100  1
  Sb  Sb22  1  0.50000000  0.83232000  0.00000000  1
  Sb  Sb23  1  0.00000000  0.83232000  0.88621000  1
  Sb  Sb24  1  0.50000000  0.83232000  0.77241000  1
  Sb  Sb25  1  0.49978700  0.83208500  0.55787800  1
  Sb  Sb26  1  0.50000000  0.33232000  0.88621000  1
  Sb  Sb27  1  0.00000000  0.33232000  0.77241000  1
  Sb  Sb28  1  0.49928900  0.32933700  0.65934400  1
  Sb  Sb29  1  0.00706800  0.32489500  0.54385600  1
  Cl  Cl30  1  0.45187200  0.40416600  0.47971500  1
  O  O31  1  0.00000000  0.82836000  0.95506000  1
  O  O32  1  0.50000000  0.82836000  0.84126000  1
  O  O33  1  0.00019600  0.84474300  0.72934800  1
  O  O34  1  0.50260900  0.85155000  0.62274100  1
  O  O35  1  0.50000000  0.82836000  0.93115000  1
  O  O36  1  0.00000000  0.82836000  0.81736000  1
  O  O37  1  0.49772100  0.84325200  0.70592500  1
  O  O38  1  0.99243900  0.79467200  0.59670800  1
  O  O39  1  0.69747000  0.32836000  0.00000000  1
  O  O40  1  0.19747000  0.32836000  0.88621000  1
  O  O41  1  0.69747000  0.32836000  0.77241000  1
  O  O42  1  0.18434800  0.33151500  0.66383300  1
  O  O43  1  0.70489000  0.33127700  0.56059900  1
  O  O44  1  0.30253000  0.32836000  0.00000000  1
  O  O45  1  0.80253000  0.32836000  0.88621000  1
  O  O46  1  0.30253000  0.32836000  0.77241000  1
  O  O47  1  0.81508500  0.33174500  0.66347700  1
  O  O48  1  0.29448900  0.32514300  0.56941100  1
  O  O49  1  0.69747000  0.67164000  0.00000000  1
  O  O50  1  0.19747000  0.67164000  0.88621000  1
  O  O51  1  0.69747000  0.67164000  0.77241000  1
  O  O52  1  0.19492100  0.66131100  0.66415600  1
  O  O53  1  0.68642300  0.67324200  0.54772900  1
  O  O54  1  0.30253000  0.67164000  0.00000000  1
  O  O55  1  0.80253000  0.67164000  0.88621000  1
  O  O56  1  0.30253000  0.67164000  0.77241000  1
  O  O57  1  0.80477200  0.66271200  0.66607100  1
  O  O58  1  0.31115400  0.67190700  0.55307100  1
  O  O59  1  0.00000000  0.17164000  0.95506000  1
  O  O60  1  0.50000000  0.17164000  0.84126000  1
  O  O61  1  0.00021600  0.15531300  0.72933600  1
  O  O62  1  0.50968400  0.15520200  0.61936700  1
  O  O63  1  0.50000000  0.17164000  0.93115000  1
  O  O64  1  0.00000000  0.17164000  0.81736000  1
  O  O65  1  0.50024900  0.16451100  0.70375800  1
  O  O66  1  0.99128100  0.16579700  0.59105100  1
  O  O67  1  0.00000000  0.50000000  0.95668000  1
  O  O68  1  0.50000000  0.50000000  0.84289000  1
  O  O69  1  0.00049200  0.50002000  0.72830400  1
  O  O70  1  0.50984300  0.49446600  0.62257000  1
  O  O71  1  0.50000000  0.50000000  0.92952000  1
  O  O72  1  0.00000000  0.50000000  0.81573000  1
  O  O73  1  0.49868000  0.49005000  0.70628000  1
  O  O74  1  0.99649000  0.49717900  0.58727300  1
  O  O75  1  0.69034000  1.00000000  1.00000000  1
  O  O76  1  0.19034000  1.00000000  0.88621000  1
  O  O77  1  0.69034000  1.00000000  0.77241000  1
  O  O78  1  0.19599800  0.00343300  0.65369800  1
  O  O79  1  0.75966800  0.95861900  0.54255000  1
  O  O80  1  0.30966000  1.00000000  1.00000000  1
  O  O81  1  0.80966000  1.00000000  0.88621000  1
  O  O82  1  0.30966000  1.00000000  0.77241000  1
  O  O83  1  0.80246500  0.00143400  0.65609900  1
  O  O84  1  0.23325300  0.95491800  0.54249900  1
