# generated using pymatgen
data_MgTiMnVZnCrFeCoCuNiSb20ClO54
_symmetry_space_group_name_H-M   'P 1'
_cell_length_a   6.71722300
_cell_length_b   9.54240400
_cell_length_c   29.72771600
_cell_angle_alpha   89.95101300
_cell_angle_beta   89.99910300
_cell_angle_gamma   89.97531300
_symmetry_Int_Tables_number   1
_chemical_formula_structural   MgTiMnVZnCrFeCoCuNiSb20ClO54
_chemical_formula_sum
'Mg1 Ti1 Mn1 V1 Zn1 Cr1 Fe1 Co1 Cu1 Ni1 Sb20 Cl1 O54'
_cell_volume   1905.49981127
_cell_formula_units_Z   1
loop_
 _symmetry_equiv_pos_site_id
 _symmetry_equiv_pos_as_xyz
  1  'x, y, z'
loop_
 _atom_site_type_symbol
 _atom_site_label
 _atom_site_symmetry_multiplicity
 _atom_site_fract_x
 _atom_site_fract_y
 _atom_site_fract_z
 _atom_site_occupancy
  Mg  Mg0  1  0.50000000  0.16768000  0.22759000  1
  Ti  Ti1  1  0.50000000  0.50000000  0.22759000  1
  Mn  Mn2  1  0.00000000  0.00000000  0.22759000  1
  V  V3  1  0.49980700  0.32667800  0.33299200  1
  Zn  Zn4  1  0.49792100  0.48703500  0.44759500  1
  Cr  Cr5  1  0.50015100  0.00655700  0.33573700  1
  Fe  Fe6  1  0.00353500  0.67221000  0.43317700  1
  Co  Co7  1  0.50000000  0.83232000  1.00000000  1
  Cu  Cu8  1  0.00103300  0.01522100  0.44165700  1
  Ni  Ni9  1  0.00000000  0.33232000  0.22759000  1
  Sb  Sb10  1  0.00000000  0.00000000  0.00000000  1
  Sb  Sb11  1  0.50000000  0.00000000  0.11379000  1
  Sb  Sb12  1  0.50000000  0.50000000  1.00000000  1
  Sb  Sb13  1  0.00000000  0.50000000  0.11379000  1
  Sb  Sb14  1  0.00004800  0.49427100  0.33781900  1
  Sb  Sb15  1  0.00000000  0.66768000  1.00000000  1
  Sb  Sb16  1  0.50000000  0.66768000  0.11379000  1
  Sb  Sb17  1  0.00000000  0.66768000  0.22759000  1
  Sb  Sb18  1  0.50018900  0.66131300  0.34102300  1
  Sb  Sb19  1  0.50000000  0.16768000  1.00000000  1
  Sb  Sb20  1  0.00000000  0.16768000  0.11379000  1
  Sb  Sb21  1  0.00025400  0.16820000  0.33523400  1
  Sb  Sb22  1  0.49978300  0.15741500  0.44103400  1
  Sb  Sb23  1  0.00000000  0.83232000  0.11379000  1
  Sb  Sb24  1  0.50000000  0.83232000  0.22759000  1
  Sb  Sb25  1  0.00026400  0.84326500  0.33927500  1
  Sb  Sb26  1  0.50281700  0.81033100  0.45297900  1
  Sb  Sb27  1  0.00000000  0.33232000  1.00000000  1
  Sb  Sb28  1  0.50000000  0.33232000  0.11379000  1
  Sb  Sb29  1  0.99899000  0.32738100  0.45199900  1
  Cl  Cl30  1  0.50516600  0.56413100  0.51977300  1
  O  O31  1  0.00000000  0.82836000  0.04494000  1
  O  O32  1  0.50000000  0.82836000  0.15874000  1
  O  O33  1  0.99980400  0.84474300  0.27065200  1
  O  O34  1  0.50192900  0.83195200  0.38097900  1
  O  O35  1  0.50000000  0.82836000  0.06885000  1
  O  O36  1  0.00000000  0.82836000  0.18264000  1
  O  O37  1  0.50093700  0.82768100  0.29645000  1
  O  O38  1  0.00461800  0.84195400  0.40578100  1
  O  O39  1  0.30253000  0.32836000  1.00000000  1
  O  O40  1  0.80253000  0.32836000  0.11379000  1
  O  O41  1  0.30253000  0.32836000  0.22759000  1
  O  O42  1  0.79819300  0.33351200  0.33466800  1
  O  O43  1  0.31103300  0.31237500  0.45078700  1
  O  O44  1  0.69747000  0.32836000  1.00000000  1
  O  O45  1  0.19747000  0.32836000  0.11379000  1
  O  O46  1  0.69747000  0.32836000  0.22759000  1
  O  O47  1  0.20234800  0.33371100  0.33415600  1
  O  O48  1  0.68861100  0.31332800  0.44876900  1
  O  O49  1  0.30253000  0.67164000  1.00000000  1
  O  O50  1  0.80253000  0.67164000  0.11379000  1
  O  O51  1  0.30253000  0.67164000  0.22759000  1
  O  O52  1  0.81049800  0.66606100  0.33737000  1
  O  O53  1  0.26902100  0.66351600  0.44112300  1
  O  O54  1  0.69747000  0.67164000  1.00000000  1
  O  O55  1  0.19747000  0.67164000  0.11379000  1
  O  O56  1  0.69747000  0.67164000  0.22759000  1
  O  O57  1  0.19014800  0.66594100  0.33685300  1
  O  O58  1  0.73950300  0.66399700  0.44130000  1
  O  O59  1  0.00000000  0.17164000  0.04494000  1
  O  O60  1  0.50000000  0.17164000  0.15874000  1
  O  O61  1  0.99978400  0.15531300  0.27066400  1
  O  O62  1  0.49798600  0.16868500  0.37505700  1
  O  O63  1  0.50000000  0.17164000  0.06885000  1
  O  O64  1  0.00000000  0.17164000  0.18264000  1
  O  O65  1  0.50072700  0.16790400  0.29791600  1
  O  O66  1  0.00336500  0.18425000  0.40168600  1
  O  O67  1  0.00000000  0.50000000  0.04332000  1
  O  O68  1  0.50000000  0.50000000  0.15711000  1
  O  O69  1  0.99950800  0.50002000  0.27169600  1
  O  O70  1  0.50002000  0.48662300  0.37759000  1
  O  O71  1  0.50000000  0.50000000  0.07048000  1
  O  O72  1  0.00000000  0.50000000  0.18427000  1
  O  O73  1  0.50081000  0.50399600  0.29367600  1
  O  O74  1  0.00351200  0.48931700  0.40502100  1
  O  O75  1  0.30966000  0.00000000  0.00000000  1
  O  O76  1  0.80966000  0.00000000  0.11379000  1
  O  O77  1  0.30966000  0.00000000  0.22759000  1
  O  O78  1  0.80122800  0.00504000  0.33911800  1
  O  O79  1  0.29559200  0.00948900  0.45099100  1
  O  O80  1  0.69034000  0.00000000  0.00000000  1
  O  O81  1  0.19034000  0.00000000  0.11379000  1
  O  O82  1  0.69034000  0.00000000  0.22759000  1
  O  O83  1  0.19936300  0.00491500  0.33870500  1
  O  O84  1  0.70628700  0.01064400  0.45075500  1
