# generated using pymatgen
data_MgTiMnVZnCrFeCoCuNiSb20ClO54
_symmetry_space_group_name_H-M   'P 1'
_cell_length_a   6.66401700
_cell_length_b   9.47973000
_cell_length_c   28.46538500
_cell_angle_alpha   89.52322200
_cell_angle_beta   89.93880100
_cell_angle_gamma   89.96108200
_symmetry_Int_Tables_number   1
_chemical_formula_structural   MgTiMnVZnCrFeCoCuNiSb20ClO54
_chemical_formula_sum
'Mg1 Ti1 Mn1 V1 Zn1 Cr1 Fe1 Co1 Cu1 Ni1 Sb20 Cl1 O54'
_cell_volume   1798.18240816
_cell_formula_units_Z   1
loop_
 _symmetry_equiv_pos_site_id
 _symmetry_equiv_pos_as_xyz
  1  'x, y, z'
loop_
 _atom_site_type_symbol
 _atom_site_label
 _atom_site_symmetry_multiplicity
 _atom_site_fract_x
 _atom_site_fract_y
 _atom_site_fract_z
 _atom_site_occupancy
  Mg  Mg0  1  0.49967700  0.15788000  0.46018800  1
  Ti  Ti1  1  1.00000000  0.83232000  0.11379000  1
  Mn  Mn2  1  1.00000000  0.00000000  0.22759000  1
  V  V3  1  1.00000000  0.16768000  0.11379000  1
  Zn  Zn4  1  0.49578300  0.47561400  0.46061900  1
  Cr  Cr5  1  0.99985100  0.83446700  0.34054100  1
  Fe  Fe6  1  0.00000000  0.33232000  0.00000000  1
  Co  Co7  1  0.50000000  0.33232000  0.11379000  1
  Cu  Cu8  1  0.50000000  0.66768000  0.11379000  1
  Ni  Ni9  1  0.50000000  0.83232000  0.22759000  1
  Sb  Sb10  1  0.00000000  0.00000000  0.00000000  1
  Sb  Sb11  1  0.50000000  0.00000000  0.11379000  1
  Sb  Sb12  1  0.49984700  0.99213900  0.34290400  1
  Sb  Sb13  1  0.00312800  0.01542600  0.45989500  1
  Sb  Sb14  1  0.50000000  0.50000000  0.00000000  1
  Sb  Sb15  1  1.00000000  0.50000000  0.11379000  1
  Sb  Sb16  1  0.50000000  0.50000000  0.22759000  1
  Sb  Sb17  1  0.99979900  0.50897600  0.35624700  1
  Sb  Sb18  1  1.00000000  0.66768000  0.00000000  1
  Sb  Sb19  1  1.00000000  0.66768000  0.22759000  1
  Sb  Sb20  1  0.49984100  0.66685800  0.34479000  1
  Sb  Sb21  1  0.00185700  0.69704600  0.47037600  1
  Sb  Sb22  1  0.50000000  0.16768000  0.00000000  1
  Sb  Sb23  1  0.50000000  0.16768000  0.22759000  1
  Sb  Sb24  1  0.99912400  0.15638700  0.34220200  1
  Sb  Sb25  1  0.50000000  0.83232000  0.00000000  1
  Sb  Sb26  1  0.50490300  0.81993900  0.46512400  1
  Sb  Sb27  1  1.00000000  0.33232000  0.22759000  1
  Sb  Sb28  1  0.49924100  0.32463100  0.34702900  1
  Sb  Sb29  1  0.99741900  0.35138400  0.48512700  1
  Cl  Cl30  1  0.51578700  0.80317100  0.54837200  1
  O  O31  1  1.00000000  0.82836000  0.04494000  1
  O  O32  1  0.50000000  0.82836000  0.15874000  1
  O  O33  1  0.99980400  0.84474300  0.27065200  1
  O  O34  1  0.49752400  0.83045100  0.39047200  1
  O  O35  1  0.50000000  0.82836000  0.06885000  1
  O  O36  1  1.00000000  0.82836000  0.18264000  1
  O  O37  1  0.49954200  0.82805400  0.29893400  1
  O  O38  1  0.00687200  0.84059400  0.41466800  1
  O  O39  1  0.30253000  0.32836000  0.00000000  1
  O  O40  1  0.80253000  0.32836000  0.11379000  1
  O  O41  1  0.30253000  0.32836000  0.22759000  1
  O  O42  1  0.79670600  0.31599100  0.33767500  1
  O  O43  1  0.29120000  0.31244700  0.46851300  1
  O  O44  1  0.69747000  0.32836000  0.00000000  1
  O  O45  1  0.19747000  0.32836000  0.11379000  1
  O  O46  1  0.69747000  0.32836000  0.22759000  1
  O  O47  1  0.20253800  0.31597100  0.33715400  1
  O  O48  1  0.70131500  0.31704300  0.46731000  1
  O  O49  1  0.30253000  0.67164000  0.00000000  1
  O  O50  1  0.80253000  0.67164000  0.11379000  1
  O  O51  1  0.30253000  0.67164000  0.22759000  1
  O  O52  1  0.80338800  0.67835000  0.34249800  1
  O  O53  1  0.31272600  0.66056800  0.45986300  1
  O  O54  1  0.69747000  0.67164000  0.00000000  1
  O  O55  1  0.19747000  0.67164000  0.11379000  1
  O  O56  1  0.69747000  0.67164000  0.22759000  1
  O  O57  1  0.19534900  0.67763600  0.34169200  1
  O  O58  1  0.69560000  0.66161000  0.45671900  1
  O  O59  1  1.00000000  0.17164000  0.04494000  1
  O  O60  1  0.50000000  0.17164000  0.15874000  1
  O  O61  1  0.99978400  0.15531300  0.27066400  1
  O  O62  1  0.49689200  0.15468300  0.38833300  1
  O  O63  1  0.50000000  0.17164000  0.06885000  1
  O  O64  1  1.00000000  0.17164000  0.18264000  1
  O  O65  1  0.50110700  0.16509200  0.29863600  1
  O  O66  1  0.00136000  0.16854800  0.41099400  1
  O  O67  1  1.00000000  0.50000000  0.04332000  1
  O  O68  1  0.50000000  0.50000000  0.15711000  1
  O  O69  1  0.99950800  0.50002000  0.27169600  1
  O  O70  1  0.49541300  0.49387600  0.38795700  1
  O  O71  1  0.50000000  0.50000000  0.07048000  1
  O  O72  1  1.00000000  0.50000000  0.18427000  1
  O  O73  1  0.50011000  0.49478400  0.29938600  1
  O  O74  1  0.00556400  0.51196000  0.43567500  1
  O  O75  1  0.30966000  1.00000000  0.00000000  1
  O  O76  1  0.80966000  0.00000000  0.11379000  1
  O  O77  1  0.30966000  0.00000000  0.22759000  1
  O  O78  1  0.80518200  0.99314100  0.34298300  1
  O  O79  1  0.31482000  0.98042800  0.46494600  1
  O  O80  1  0.69034000  1.00000000  0.00000000  1
  O  O81  1  0.19034000  0.00000000  0.11379000  1
  O  O82  1  0.69034000  0.00000000  0.22759000  1
  O  O83  1  0.19417800  0.99306400  0.34209500  1
  O  O84  1  0.69118700  0.98240400  0.46222400  1
