# generated using pymatgen
data_MgTiMnVZnCrFeCoCuNiSb20ClO54
_symmetry_space_group_name_H-M   'P 1'
_cell_length_a   6.64892500
_cell_length_b   9.62408400
_cell_length_c   29.12706100
_cell_angle_alpha   90.28069800
_cell_angle_beta   89.79611300
_cell_angle_gamma   89.99722100
_symmetry_Int_Tables_number   1
_chemical_formula_structural   MgTiMnVZnCrFeCoCuNiSb20ClO54
_chemical_formula_sum
'Mg1 Ti1 Mn1 V1 Zn1 Cr1 Fe1 Co1 Cu1 Ni1 Sb20 Cl1 O54'
_cell_volume   1863.80100636
_cell_formula_units_Z   1
loop_
 _symmetry_equiv_pos_site_id
 _symmetry_equiv_pos_as_xyz
  1  'x, y, z'
loop_
 _atom_site_type_symbol
 _atom_site_label
 _atom_site_symmetry_multiplicity
 _atom_site_fract_x
 _atom_site_fract_y
 _atom_site_fract_z
 _atom_site_occupancy
  Mg  Mg0  1  0.00000000  0.33232000  0.77241000  1
  Ti  Ti1  1  0.00000000  0.16768000  0.88621000  1
  Mn  Mn2  1  0.50000000  0.50000000  0.77241000  1
  V  V3  1  0.00000000  0.33232000  0.00000000  1
  Zn  Zn4  1  0.50169700  0.47993700  0.56655000  1
  Cr  Cr5  1  0.00000000  0.00000000  0.00000000  1
  Fe  Fe6  1  0.49868800  0.65004100  0.66401900  1
  Co  Co7  1  0.50000000  0.66768000  0.88621000  1
  Cu  Cu8  1  0.49675100  0.33014000  0.66788500  1
  Ni  Ni9  1  0.00164000  0.32165300  0.56331300  1
  Sb  Sb10  1  0.50000000  0.00000000  0.88621000  1
  Sb  Sb11  1  0.00000000  0.00000000  0.77241000  1
  Sb  Sb12  1  0.49793700  0.99296500  0.65644800  1
  Sb  Sb13  1  0.00369500  0.99708500  0.53662400  1
  Sb  Sb14  1  0.50000000  0.50000000  0.00000000  1
  Sb  Sb15  1  0.00000000  0.50000000  0.88621000  1
  Sb  Sb16  1  0.99834100  0.49226400  0.66156700  1
  Sb  Sb17  1  0.50000000  0.33232000  0.88621000  1
  Sb  Sb18  1  0.50000000  0.83232000  0.00000000  1
  Sb  Sb19  1  0.00000000  0.83232000  0.88621000  1
  Sb  Sb20  1  0.50000000  0.83232000  0.77241000  1
  Sb  Sb21  1  0.99924800  0.82481600  0.65607300  1
  Sb  Sb22  1  0.50435800  0.78871800  0.54567400  1
  Sb  Sb23  1  0.50000000  0.16768000  0.00000000  1
  Sb  Sb24  1  0.50000000  0.16768000  0.77241000  1
  Sb  Sb25  1  0.99806300  0.16684100  0.66015100  1
  Sb  Sb26  1  0.50194700  0.17882500  0.54345500  1
  Sb  Sb27  1  0.00000000  0.66768000  0.00000000  1
  Sb  Sb28  1  0.00000000  0.66768000  0.77241000  1
  Sb  Sb29  1  0.00032000  0.64783400  0.54400900  1
  Cl  Cl30  1  0.52750500  0.69351500  0.46880600  1
  O  O31  1  0.00000000  0.17164000  0.95506000  1
  O  O32  1  0.50000000  0.17164000  0.84126000  1
  O  O33  1  0.99980400  0.15525700  0.72934800  1
  O  O34  1  0.49975400  0.14219300  0.61283700  1
  O  O35  1  0.50000000  0.17164000  0.93115000  1
  O  O36  1  0.00000000  0.17164000  0.81736000  1
  O  O37  1  0.49999300  0.14912100  0.70274400  1
  O  O38  1  0.99908500  0.13693900  0.59016900  1
  O  O39  1  0.30253000  0.67164000  1.00000000  1
  O  O40  1  0.80253000  0.67164000  0.88621000  1
  O  O41  1  0.30253000  0.67164000  0.77241000  1
  O  O42  1  0.80619700  0.66577600  0.66382300  1
  O  O43  1  0.30670800  0.64159300  0.56155400  1
  O  O44  1  0.69747000  0.67164000  0.00000000  1
  O  O45  1  0.19747000  0.67164000  0.88621000  1
  O  O46  1  0.69747000  0.67164000  0.77241000  1
  O  O47  1  0.19050400  0.66525900  0.66346400  1
  O  O48  1  0.69733900  0.64426600  0.56528700  1
  O  O49  1  0.30253000  0.32836000  1.00000000  1
  O  O50  1  0.80253000  0.32836000  0.88621000  1
  O  O51  1  0.30253000  0.32836000  0.77241000  1
  O  O52  1  0.80293900  0.32759800  0.66219800  1
  O  O53  1  0.28613000  0.32544700  0.55231000  1
  O  O54  1  0.69747000  0.32836000  0.00000000  1
  O  O55  1  0.19747000  0.32836000  0.88621000  1
  O  O56  1  0.69747000  0.32836000  0.77241000  1
  O  O57  1  0.19202500  0.32599200  0.66205800  1
  O  O58  1  0.71608300  0.32765400  0.55277400  1
  O  O59  1  0.00000000  0.82836000  0.95506000  1
  O  O60  1  0.50000000  0.82836000  0.84126000  1
  O  O61  1  0.99978400  0.84468700  0.72933600  1
  O  O62  1  0.49663600  0.82608900  0.61764000  1
  O  O63  1  0.50000000  0.82836000  0.93115000  1
  O  O64  1  0.00000000  0.82836000  0.81736000  1
  O  O65  1  0.49935300  0.83613500  0.70395000  1
  O  O66  1  0.00804200  0.82772600  0.58712300  1
  O  O67  1  0.00000000  0.50000000  0.95668000  1
  O  O68  1  0.50000000  0.50000000  0.84289000  1
  O  O69  1  0.99950800  0.49998000  0.72830400  1
  O  O70  1  0.49660200  0.49161100  0.63254300  1
  O  O71  1  0.50000000  0.50000000  0.92952000  1
  O  O72  1  0.00000000  0.50000000  0.81573000  1
  O  O73  1  0.50064200  0.51286400  0.71209200  1
  O  O74  1  0.00338700  0.49774300  0.59194500  1
  O  O75  1  0.30966000  1.00000000  1.00000000  1
  O  O76  1  0.80966000  0.00000000  0.88621000  1
  O  O77  1  0.30966000  1.00000000  0.77241000  1
  O  O78  1  0.80741100  0.99076600  0.66071100  1
  O  O79  1  0.29441700  0.92647500  0.53051400  1
  O  O80  1  0.69034000  0.00000000  0.00000000  1
  O  O81  1  0.19034000  1.00000000  0.88621000  1
  O  O82  1  0.69034000  0.00000000  0.77241000  1
  O  O83  1  0.18940300  0.99109200  0.66125200  1
  O  O84  1  0.71335300  0.92933200  0.53304300  1
