# generated using pymatgen
data_MgTiMnVZnCrFeCoCuNiSb20ClO54
_symmetry_space_group_name_H-M   'P 1'
_cell_length_a   6.69035000
_cell_length_b   9.38682900
_cell_length_c   29.07101300
_cell_angle_alpha   90.07431100
_cell_angle_beta   89.80972000
_cell_angle_gamma   89.85190800
_symmetry_Int_Tables_number   1
_chemical_formula_structural   MgTiMnVZnCrFeCoCuNiSb20ClO54
_chemical_formula_sum
'Mg1 Ti1 Mn1 V1 Zn1 Cr1 Fe1 Co1 Cu1 Ni1 Sb20 Cl1 O54'
_cell_volume   1825.67594800
_cell_formula_units_Z   1
loop_
 _symmetry_equiv_pos_site_id
 _symmetry_equiv_pos_as_xyz
  1  'x, y, z'
loop_
 _atom_site_type_symbol
 _atom_site_label
 _atom_site_symmetry_multiplicity
 _atom_site_fract_x
 _atom_site_fract_y
 _atom_site_fract_z
 _atom_site_occupancy
  Mg  Mg0  1  0.50000000  0.83232000  0.00000000  1
  Ti  Ti1  1  0.50000000  0.50000000  0.22759000  1
  Mn  Mn2  1  1.00000000  0.83232000  0.11379000  1
  V  V3  1  0.49541600  0.66184800  0.33996400  1
  Zn  Zn4  1  0.49119500  0.47601600  0.44934200  1
  Cr  Cr5  1  0.50000000  0.66768000  0.11379000  1
  Fe  Fe6  1  0.00000000  0.66768000  0.22759000  1
  Co  Co7  1  0.50000000  0.16768000  0.22759000  1
  Cu  Cu8  1  0.50739300  0.16107700  0.46122500  1
  Ni  Ni9  1  0.00000000  0.50000000  0.11379000  1
  Sb  Sb10  1  0.00000000  0.00000000  0.00000000  1
  Sb  Sb11  1  0.50000000  0.00000000  0.11379000  1
  Sb  Sb12  1  0.00000000  1.00000000  0.22759000  1
  Sb  Sb13  1  0.49529800  0.00182100  0.34234500  1
  Sb  Sb14  1  0.00551900  0.00174300  0.46739700  1
  Sb  Sb15  1  0.50000000  0.50000000  0.00000000  1
  Sb  Sb16  1  0.99053900  0.50917100  0.34256100  1
  Sb  Sb17  1  0.00000000  0.66768000  0.00000000  1
  Sb  Sb18  1  0.00511300  0.66478000  0.46989200  1
  Sb  Sb19  1  0.50000000  0.16768000  0.00000000  1
  Sb  Sb20  1  0.00000000  0.16768000  0.11379000  1
  Sb  Sb21  1  0.99544000  0.16682900  0.34769200  1
  Sb  Sb22  1  0.50000000  0.83232000  0.22759000  1
  Sb  Sb23  1  0.99829200  0.82307900  0.34144600  1
  Sb  Sb24  1  0.51198600  0.82241500  0.45695900  1
  Sb  Sb25  1  1.00000000  0.33232000  0.00000000  1
  Sb  Sb26  1  0.50000000  0.33232000  0.11379000  1
  Sb  Sb27  1  1.00000000  0.33232000  0.22759000  1
  Sb  Sb28  1  0.49408300  0.33255800  0.33743600  1
  Sb  Sb29  1  0.00137500  0.32459000  0.47150100  1
  Cl  Cl30  1  0.54045400  0.80837800  0.53909900  1
  O  O31  1  1.00000000  0.82836000  0.04494000  1
  O  O32  1  0.50000000  0.82836000  0.15874000  1
  O  O33  1  0.99980400  0.84474300  0.27065200  1
  O  O34  1  0.49342200  0.83089300  0.38355300  1
  O  O35  1  0.50000000  0.82836000  0.06885000  1
  O  O36  1  0.00000000  0.82836000  0.18264000  1
  O  O37  1  0.49037900  0.84149700  0.29733600  1
  O  O38  1  0.02015400  0.83443100  0.42519300  1
  O  O39  1  0.30253000  0.32836000  1.00000000  1
  O  O40  1  0.80253000  0.32836000  0.11379000  1
  O  O41  1  0.30253000  0.32836000  0.22759000  1
  O  O42  1  0.79878700  0.32202800  0.33729100  1
  O  O43  1  0.30824000  0.30993000  0.46724500  1
  O  O44  1  0.69747000  0.32836000  1.00000000  1
  O  O45  1  0.19747000  0.32836000  0.11379000  1
  O  O46  1  0.69747000  0.32836000  0.22759000  1
  O  O47  1  0.18933000  0.32393600  0.33788000  1
  O  O48  1  0.69340100  0.31970100  0.46358600  1
  O  O49  1  0.30253000  0.67164000  1.00000000  1
  O  O50  1  0.80253000  0.67164000  0.11379000  1
  O  O51  1  0.30253000  0.67164000  0.22759000  1
  O  O52  1  0.75800000  0.66852900  0.32779900  1
  O  O53  1  0.31995900  0.66025800  0.45387900  1
  O  O54  1  0.69747000  0.67164000  0.00000000  1
  O  O55  1  0.19747000  0.67164000  0.11379000  1
  O  O56  1  0.69747000  0.67164000  0.22759000  1
  O  O57  1  0.22853600  0.66265200  0.32957500  1
  O  O58  1  0.70525400  0.66467400  0.44875400  1
  O  O59  1  0.00000000  0.17164000  0.04494000  1
  O  O60  1  0.50000000  0.17164000  0.15874000  1
  O  O61  1  0.99978400  0.15531300  0.27066400  1
  O  O62  1  0.49109800  0.17259500  0.38355900  1
  O  O63  1  0.50000000  0.17164000  0.06885000  1
  O  O64  1  0.00000000  0.17164000  0.18264000  1
  O  O65  1  0.49598400  0.16150000  0.29473900  1
  O  O66  1  0.00605300  0.16471500  0.41641400  1
  O  O67  1  0.00000000  0.50000000  0.04332000  1
  O  O68  1  0.50000000  0.50000000  0.15711000  1
  O  O69  1  0.99950800  0.50002000  0.27169600  1
  O  O70  1  0.49651400  0.49951400  0.37934200  1
  O  O71  1  0.50000000  0.50000000  0.07048000  1
  O  O72  1  1.00000000  0.50000000  0.18427000  1
  O  O73  1  0.49658900  0.49721300  0.29373600  1
  O  O74  1  0.01771500  0.49105200  0.42907000  1
  O  O75  1  0.30966000  1.00000000  1.00000000  1
  O  O76  1  0.80966000  0.00000000  0.11379000  1
  O  O77  1  0.30966000  1.00000000  0.22759000  1
  O  O78  1  0.79857200  0.00961000  0.34273400  1
  O  O79  1  0.32592400  0.99167000  0.46111900  1
  O  O80  1  0.69034000  0.00000000  1.00000000  1
  O  O81  1  0.19034000  1.00000000  0.11379000  1
  O  O82  1  0.69034000  0.00000000  0.22759000  1
  O  O83  1  0.19120200  0.00785900  0.34146200  1
  O  O84  1  0.69793100  0.99636400  0.45466400  1
