# generated using pymatgen
data_MgTiMnVZnCrFeCoCuNiSb20ClO54
_symmetry_space_group_name_H-M   'P 1'
_cell_length_a   6.71070100
_cell_length_b   9.48155900
_cell_length_c   28.41693100
_cell_angle_alpha   90.28635200
_cell_angle_beta   89.69853200
_cell_angle_gamma   89.91774200
_symmetry_Int_Tables_number   1
_chemical_formula_structural   MgTiMnVZnCrFeCoCuNiSb20ClO54
_chemical_formula_sum
'Mg1 Ti1 Mn1 V1 Zn1 Cr1 Fe1 Co1 Cu1 Ni1 Sb20 Cl1 O54'
_cell_volume   1808.06031444
_cell_formula_units_Z   1
loop_
 _symmetry_equiv_pos_site_id
 _symmetry_equiv_pos_as_xyz
  1  'x, y, z'
loop_
 _atom_site_type_symbol
 _atom_site_label
 _atom_site_symmetry_multiplicity
 _atom_site_fract_x
 _atom_site_fract_y
 _atom_site_fract_z
 _atom_site_occupancy
  Mg  Mg0  1  0.50000000  1.00000000  0.88621000  1
  Ti  Ti1  1  0.50000000  0.50000000  1.00000000  1
  Mn  Mn2  1  0.00000000  0.33232000  0.77241000  1
  V  V3  1  1.00000000  0.16768000  0.88621000  1
  Zn  Zn4  1  0.49961400  0.49367000  0.53864600  1
  Cr  Cr5  1  0.00000000  0.66768000  0.77241000  1
  Fe  Fe6  1  0.01715600  0.82896800  0.66187100  1
  Co  Co7  1  0.50605600  0.99772700  0.65398600  1
  Cu  Cu8  1  1.00000000  0.50000000  0.88621000  1
  Ni  Ni9  1  0.50000000  0.33232000  0.88621000  1
  Sb  Sb10  1  0.00000000  0.00000000  0.00000000  1
  Sb  Sb11  1  0.00000000  1.00000000  0.77241000  1
  Sb  Sb12  1  0.94961600  0.98964400  0.57200300  1
  Sb  Sb13  1  0.50000000  0.50000000  0.77241000  1
  Sb  Sb14  1  0.00352600  0.50889600  0.65748600  1
  Sb  Sb15  1  0.00000000  0.66768000  1.00000000  1
  Sb  Sb16  1  0.50000000  0.66768000  0.88621000  1
  Sb  Sb17  1  0.51133800  0.67345800  0.65241400  1
  Sb  Sb18  1  0.00816300  0.66626400  0.53450600  1
  Sb  Sb19  1  0.50000000  0.16768000  1.00000000  1
  Sb  Sb20  1  0.50000000  0.16768000  0.77241000  1
  Sb  Sb21  1  0.02161600  0.16367500  0.65917900  1
  Sb  Sb22  1  0.48335700  0.17764200  0.53497200  1
  Sb  Sb23  1  0.50000000  0.83232000  1.00000000  1
  Sb  Sb24  1  0.00000000  0.83232000  0.88621000  1
  Sb  Sb25  1  0.50000000  0.83232000  0.77241000  1
  Sb  Sb26  1  0.47523500  0.80886900  0.53536600  1
  Sb  Sb27  1  0.00000000  0.33232000  1.00000000  1
  Sb  Sb28  1  0.51514500  0.32207600  0.65339900  1
  Sb  Sb29  1  0.01888300  0.33035600  0.53147200  1
  Cl  Cl30  1  0.32103300  0.50366000  0.46647900  1
  O  O31  1  1.00000000  0.82836000  0.95506000  1
  O  O32  1  0.50000000  0.82836000  0.84126000  1
  O  O33  1  0.00019600  0.84474300  0.72934800  1
  O  O34  1  0.52375900  0.83619500  0.60875100  1
  O  O35  1  0.50000000  0.82836000  0.93115000  1
  O  O36  1  0.00000000  0.82836000  0.81736000  1
  O  O37  1  0.50461100  0.83562200  0.70153700  1
  O  O38  1  0.97103800  0.79459200  0.59265300  1
  O  O39  1  0.69747000  0.32836000  1.00000000  1
  O  O40  1  0.19747000  0.32836000  0.88621000  1
  O  O41  1  0.69747000  0.32836000  0.77241000  1
  O  O42  1  0.20924100  0.32717300  0.66087200  1
  O  O43  1  0.69252500  0.32663900  0.53483700  1
  O  O44  1  0.30253000  0.32836000  1.00000000  1
  O  O45  1  0.80253000  0.32836000  0.88621000  1
  O  O46  1  0.30253000  0.32836000  0.77241000  1
  O  O47  1  0.81698900  0.32247300  0.66413800  1
  O  O48  1  0.30259700  0.33403100  0.55975200  1
  O  O49  1  0.69747000  0.67164000  1.00000000  1
  O  O50  1  0.19747000  0.67164000  0.88621000  1
  O  O51  1  0.69747000  0.67164000  0.77241000  1
  O  O52  1  0.21047400  0.67116500  0.66016800  1
  O  O53  1  0.68720600  0.65905700  0.53754800  1
  O  O54  1  0.30253000  0.67164000  1.00000000  1
  O  O55  1  0.80253000  0.67164000  0.88621000  1
  O  O56  1  0.30253000  0.67164000  0.77241000  1
  O  O57  1  0.80916600  0.67461800  0.66441000  1
  O  O58  1  0.29744500  0.65694300  0.56149700  1
  O  O59  1  0.00000000  0.17164000  0.95506000  1
  O  O60  1  0.50000000  0.17164000  0.84126000  1
  O  O61  1  0.00021600  0.15531300  0.72933600  1
  O  O62  1  0.51915500  0.15992300  0.60906900  1
  O  O63  1  0.50000000  0.17164000  0.93115000  1
  O  O64  1  0.00000000  0.17164000  0.81736000  1
  O  O65  1  0.51019800  0.16076700  0.70141600  1
  O  O66  1  0.97856700  0.19378700  0.58929800  1
  O  O67  1  0.00000000  0.50000000  0.95668000  1
  O  O68  1  0.50000000  0.50000000  0.84289000  1
  O  O69  1  0.00049200  0.50002000  0.72830400  1
  O  O70  1  0.54501700  0.49445800  0.61459700  1
  O  O71  1  0.50000000  0.50000000  0.92952000  1
  O  O72  1  1.00000000  0.50000000  0.81573000  1
  O  O73  1  0.50453500  0.49668600  0.70153600  1
  O  O74  1  0.97712000  0.49486600  0.57781200  1
  O  O75  1  0.69034000  0.00000000  1.00000000  1
  O  O76  1  0.19034000  1.00000000  0.88621000  1
  O  O77  1  0.69034000  1.00000000  0.77241000  1
  O  O78  1  0.20593100  0.00241900  0.65188500  1
  O  O79  1  0.71611300  0.99480100  0.53481200  1
  O  O80  1  0.30966000  0.00000000  1.00000000  1
  O  O81  1  0.80966000  1.00000000  0.88621000  1
  O  O82  1  0.30966000  1.00000000  0.77241000  1
  O  O83  1  0.82937800  0.00462500  0.64355700  1
  O  O84  1  0.19578800  0.99101800  0.53876000  1
