# generated using pymatgen
data_MgTiMnVZnCrFeCoCuNiSb20ClO54
_symmetry_space_group_name_H-M   'P 1'
_cell_length_a   6.70575900
_cell_length_b   9.42964400
_cell_length_c   28.94416800
_cell_angle_alpha   90.14080300
_cell_angle_beta   89.98016600
_cell_angle_gamma   89.99617300
_symmetry_Int_Tables_number   1
_chemical_formula_structural   MgTiMnVZnCrFeCoCuNiSb20ClO54
_chemical_formula_sum
'Mg1 Ti1 Mn1 V1 Zn1 Cr1 Fe1 Co1 Cu1 Ni1 Sb20 Cl1 O54'
_cell_volume   1830.21862270
_cell_formula_units_Z   1
loop_
 _symmetry_equiv_pos_site_id
 _symmetry_equiv_pos_as_xyz
  1  'x, y, z'
loop_
 _atom_site_type_symbol
 _atom_site_label
 _atom_site_symmetry_multiplicity
 _atom_site_fract_x
 _atom_site_fract_y
 _atom_site_fract_z
 _atom_site_occupancy
  Mg  Mg0  1  0.50000000  0.50000000  0.22759000  1
  Ti  Ti1  1  0.50000000  0.16768000  0.22759000  1
  Mn  Mn2  1  0.49909400  0.65906900  0.33797300  1
  V  V3  1  0.00000000  0.00000000  0.00000000  1
  Zn  Zn4  1  0.50156800  0.50875900  0.45495600  1
  Cr  Cr5  1  0.50000000  0.50000000  1.00000000  1
  Fe  Fe6  1  1.00000000  0.50000000  0.11379000  1
  Co  Co7  1  1.00000000  0.33232000  0.22759000  1
  Cu  Cu8  1  0.50000000  0.33232000  0.11379000  1
  Ni  Ni9  1  1.00000000  0.66768000  0.22759000  1
  Sb  Sb10  1  0.50000000  0.00000000  0.11379000  1
  Sb  Sb11  1  0.00000000  0.00000000  0.22759000  1
  Sb  Sb12  1  0.49955700  0.00138100  0.33997600  1
  Sb  Sb13  1  0.99925500  0.99077700  0.46753800  1
  Sb  Sb14  1  0.00002500  0.50348700  0.33748700  1
  Sb  Sb15  1  0.00000000  0.66768000  0.00000000  1
  Sb  Sb16  1  0.50000000  0.66768000  0.11379000  1
  Sb  Sb17  1  0.00053100  0.67852500  0.46728400  1
  Sb  Sb18  1  0.50000000  0.16768000  1.00000000  1
  Sb  Sb19  1  0.00000000  0.16768000  0.11379000  1
  Sb  Sb20  1  0.00015400  0.16541300  0.34082500  1
  Sb  Sb21  1  0.50208200  0.20089600  0.46570600  1
  Sb  Sb22  1  0.50000000  0.83232000  1.00000000  1
  Sb  Sb23  1  0.00000000  0.83232000  0.11379000  1
  Sb  Sb24  1  0.50000000  0.83232000  0.22759000  1
  Sb  Sb25  1  0.99956400  0.82627200  0.34112500  1
  Sb  Sb26  1  0.49956200  0.83268800  0.44776200  1
  Sb  Sb27  1  1.00000000  0.33232000  0.00000000  1
  Sb  Sb28  1  0.50010500  0.34458000  0.34821000  1
  Sb  Sb29  1  0.99966800  0.34007400  0.45414400  1
  Cl  Cl30  1  0.51476400  0.43346600  0.53136600  1
  O  O31  1  1.00000000  0.82836000  0.04494000  1
  O  O32  1  0.50000000  0.82836000  0.15874000  1
  O  O33  1  0.99980400  0.84474300  0.27065200  1
  O  O34  1  0.49549600  0.82833000  0.38015400  1
  O  O35  1  0.50000000  0.82836000  0.06885000  1
  O  O36  1  1.00000000  0.82836000  0.18264000  1
  O  O37  1  0.50173200  0.83568300  0.29748100  1
  O  O38  1  0.00349500  0.83402300  0.41167000  1
  O  O39  1  0.30253000  0.32836000  0.00000000  1
  O  O40  1  0.80253000  0.32836000  0.11379000  1
  O  O41  1  0.30253000  0.32836000  0.22759000  1
  O  O42  1  0.80839000  0.32899900  0.33927400  1
  O  O43  1  0.30461800  0.34069600  0.43797600  1
  O  O44  1  0.69747000  0.32836000  1.00000000  1
  O  O45  1  0.19747000  0.32836000  0.11379000  1
  O  O46  1  0.69747000  0.32836000  0.22759000  1
  O  O47  1  0.19166200  0.32911500  0.33914500  1
  O  O48  1  0.69624200  0.33971600  0.43595000  1
  O  O49  1  0.30253000  0.67164000  0.00000000  1
  O  O50  1  0.80253000  0.67164000  0.11379000  1
  O  O51  1  0.30253000  0.67164000  0.22759000  1
  O  O52  1  0.79603600  0.66823600  0.33947500  1
  O  O53  1  0.30991200  0.67932000  0.45961000  1
  O  O54  1  0.69747000  0.67164000  1.00000000  1
  O  O55  1  0.19747000  0.67164000  0.11379000  1
  O  O56  1  0.69747000  0.67164000  0.22759000  1
  O  O57  1  0.20282900  0.66859900  0.33869600  1
  O  O58  1  0.69284600  0.68023300  0.45760700  1
  O  O59  1  1.00000000  0.17164000  0.04494000  1
  O  O60  1  0.50000000  0.17164000  0.15874000  1
  O  O61  1  0.99978400  0.15531300  0.27066400  1
  O  O62  1  0.49659900  0.15387200  0.38718700  1
  O  O63  1  0.50000000  0.17164000  0.06885000  1
  O  O64  1  1.00000000  0.17164000  0.18264000  1
  O  O65  1  0.50011400  0.16662700  0.29843400  1
  O  O66  1  0.00288000  0.15876300  0.40969500  1
  O  O67  1  1.00000000  0.50000000  0.04332000  1
  O  O68  1  0.50000000  0.50000000  0.15711000  1
  O  O69  1  0.99950800  0.50002000  0.27169600  1
  O  O70  1  0.49646700  0.53387400  0.38365800  1
  O  O71  1  0.50000000  0.50000000  0.07048000  1
  O  O72  1  1.00000000  0.50000000  0.18427000  1
  O  O73  1  0.50099900  0.50737900  0.30008500  1
  O  O74  1  0.00276300  0.50782800  0.40681800  1
  O  O75  1  0.30966000  1.00000000  0.00000000  1
  O  O76  1  0.80966000  0.00000000  0.11379000  1
  O  O77  1  0.30966000  1.00000000  0.22759000  1
  O  O78  1  0.80445900  0.99837500  0.34088200  1
  O  O79  1  0.30795800  0.98925600  0.45673600  1
  O  O80  1  0.69034000  0.00000000  1.00000000  1
  O  O81  1  0.19034000  1.00000000  0.11379000  1
  O  O82  1  0.69034000  0.00000000  0.22759000  1
  O  O83  1  0.19471900  0.99816800  0.34014900  1
  O  O84  1  0.69191300  0.98987400  0.45421500  1
