# generated using pymatgen
data_MgTiMnVZnCrFeCoCuNiSb20ClO54
_symmetry_space_group_name_H-M   'P 1'
_cell_length_a   6.70654900
_cell_length_b   9.48327500
_cell_length_c   29.16383100
_cell_angle_alpha   89.83570600
_cell_angle_beta   89.97713700
_cell_angle_gamma   89.99137600
_symmetry_Int_Tables_number   1
_chemical_formula_structural   MgTiMnVZnCrFeCoCuNiSb20ClO54
_chemical_formula_sum
'Mg1 Ti1 Mn1 V1 Zn1 Cr1 Fe1 Co1 Cu1 Ni1 Sb20 Cl1 O54'
_cell_volume   1854.81327122
_cell_formula_units_Z   1
loop_
 _symmetry_equiv_pos_site_id
 _symmetry_equiv_pos_as_xyz
  1  'x, y, z'
loop_
 _atom_site_type_symbol
 _atom_site_label
 _atom_site_symmetry_multiplicity
 _atom_site_fract_x
 _atom_site_fract_y
 _atom_site_fract_z
 _atom_site_occupancy
  Mg  Mg0  1  0.99991200  0.16216800  0.33690200  1
  Ti  Ti1  1  0.49899100  0.97126600  0.34708700  1
  Mn  Mn2  1  1.00000000  0.00000000  0.22759000  1
  V  V3  1  1.00000000  0.66768000  0.22759000  1
  Zn  Zn4  1  0.49674000  0.49150000  0.45328300  1
  Cr  Cr5  1  0.50000000  0.83232000  0.00000000  1
  Fe  Fe6  1  0.99926000  0.32875300  0.44819300  1
  Co  Co7  1  0.49938300  0.66176100  0.34320600  1
  Cu  Cu8  1  1.00000000  0.16768000  0.11379000  1
  Ni  Ni9  1  0.50000000  0.00000000  0.11379000  1
  Sb  Sb10  1  0.00000000  0.00000000  0.00000000  1
  Sb  Sb11  1  0.99777000  0.00090500  0.43067800  1
  Sb  Sb12  1  0.50000000  0.50000000  0.00000000  1
  Sb  Sb13  1  1.00000000  0.50000000  0.11379000  1
  Sb  Sb14  1  0.50000000  0.50000000  0.22759000  1
  Sb  Sb15  1  0.99926800  0.49582700  0.34163300  1
  Sb  Sb16  1  0.00000000  0.33232000  0.00000000  1
  Sb  Sb17  1  0.50000000  0.33232000  0.11379000  1
  Sb  Sb18  1  1.00000000  0.33232000  0.22759000  1
  Sb  Sb19  1  0.49990200  0.33196400  0.34163400  1
  Sb  Sb20  1  1.00000000  0.83232000  0.11379000  1
  Sb  Sb21  1  0.50000000  0.83232000  0.22759000  1
  Sb  Sb22  1  0.99896500  0.82798000  0.33755700  1
  Sb  Sb23  1  0.49579000  0.79736200  0.46576600  1
  Sb  Sb24  1  0.50000000  0.16768000  0.00000000  1
  Sb  Sb25  1  0.50000000  0.16768000  0.22759000  1
  Sb  Sb26  1  0.49998700  0.17522000  0.45936300  1
  Sb  Sb27  1  0.00000000  0.66768000  0.00000000  1
  Sb  Sb28  1  0.50000000  0.66768000  0.11379000  1
  Sb  Sb29  1  0.99606400  0.64675300  0.45968800  1
  Cl  Cl30  1  0.49491600  0.57861100  0.53103600  1
  O  O31  1  1.00000000  0.17164000  0.04494000  1
  O  O32  1  0.50000000  0.17164000  0.15874000  1
  O  O33  1  0.00019600  0.15525700  0.27065200  1
  O  O34  1  0.49997700  0.16138600  0.38540000  1
  O  O35  1  0.50000000  0.17164000  0.06885000  1
  O  O36  1  1.00000000  0.17164000  0.18264000  1
  O  O37  1  0.49935300  0.16736500  0.29691700  1
  O  O38  1  0.00054200  0.18579500  0.40400200  1
  O  O39  1  0.69747000  0.67164000  1.00000000  1
  O  O40  1  0.19747000  0.67164000  0.11379000  1
  O  O41  1  0.69747000  0.67164000  0.22759000  1
  O  O42  1  0.19325000  0.66228000  0.33750300  1
  O  O43  1  0.69834300  0.65787100  0.44271600  1
  O  O44  1  0.30253000  0.67164000  0.00000000  1
  O  O45  1  0.80253000  0.67164000  0.11379000  1
  O  O46  1  0.30253000  0.67164000  0.22759000  1
  O  O47  1  0.80530800  0.66209600  0.33697500  1
  O  O48  1  0.29370300  0.65862500  0.44244800  1
  O  O49  1  0.69747000  0.32836000  1.00000000  1
  O  O50  1  0.19747000  0.32836000  0.11379000  1
  O  O51  1  0.69747000  0.32836000  0.22759000  1
  O  O52  1  0.19493800  0.33667700  0.33650700  1
  O  O53  1  0.72044800  0.32846100  0.46096500  1
  O  O54  1  0.30253000  0.32836000  0.00000000  1
  O  O55  1  0.80253000  0.32836000  0.11379000  1
  O  O56  1  0.30253000  0.32836000  0.22759000  1
  O  O57  1  0.80426700  0.33629400  0.33593900  1
  O  O58  1  0.27709300  0.32997900  0.46046600  1
  O  O59  1  1.00000000  0.82836000  0.04494000  1
  O  O60  1  0.50000000  0.82836000  0.15874000  1
  O  O61  1  0.00021600  0.84468700  0.27066400  1
  O  O62  1  0.49861500  0.84625300  0.39129200  1
  O  O63  1  0.50000000  0.82836000  0.06885000  1
  O  O64  1  1.00000000  0.82836000  0.18264000  1
  O  O65  1  0.49970500  0.83694100  0.29729400  1
  O  O66  1  0.99427600  0.80616400  0.40747500  1
  O  O67  1  1.00000000  0.50000000  0.04332000  1
  O  O68  1  0.50000000  0.50000000  0.15711000  1
  O  O69  1  0.00049200  0.49998000  0.27169600  1
  O  O70  1  0.50060200  0.49064800  0.38282900  1
  O  O71  1  0.50000000  0.50000000  0.07048000  1
  O  O72  1  1.00000000  0.50000000  0.18427000  1
  O  O73  1  0.49824400  0.49656400  0.29499600  1
  O  O74  1  0.99643100  0.49571600  0.40977700  1
  O  O75  1  0.69034000  1.00000000  1.00000000  1
  O  O76  1  0.19034000  0.00000000  0.11379000  1
  O  O77  1  0.69034000  1.00000000  0.22759000  1
  O  O78  1  0.19368600  0.98473700  0.34832800  1
  O  O79  1  0.75198600  0.99659900  0.46289300  1
  O  O80  1  0.30966000  0.00000000  0.00000000  1
  O  O81  1  0.80966000  1.00000000  0.11379000  1
  O  O82  1  0.30966000  0.00000000  0.22759000  1
  O  O83  1  0.80475100  0.98536100  0.34817300  1
  O  O84  1  0.24055300  0.99264500  0.46377400  1
