# generated using pymatgen
data_MgTiMnVZnCrFeCoCuNiSb20ClO54
_symmetry_space_group_name_H-M   'P 1'
_cell_length_a   6.69345000
_cell_length_b   9.52525600
_cell_length_c   29.74894000
_cell_angle_alpha   90.00138000
_cell_angle_beta   89.99467400
_cell_angle_gamma   89.99169300
_symmetry_Int_Tables_number   1
_chemical_formula_structural   MgTiMnVZnCrFeCoCuNiSb20ClO54
_chemical_formula_sum
'Mg1 Ti1 Mn1 V1 Zn1 Cr1 Fe1 Co1 Cu1 Ni1 Sb20 Cl1 O54'
_cell_volume   1896.69792609
_cell_formula_units_Z   1
loop_
 _symmetry_equiv_pos_site_id
 _symmetry_equiv_pos_as_xyz
  1  'x, y, z'
loop_
 _atom_site_type_symbol
 _atom_site_label
 _atom_site_symmetry_multiplicity
 _atom_site_fract_x
 _atom_site_fract_y
 _atom_site_fract_z
 _atom_site_occupancy
  Mg  Mg0  1  0.50000000  0.83232000  0.77241000  1
  Ti  Ti1  1  1.00000000  0.83232000  0.88621000  1
  Mn  Mn2  1  0.50000000  0.83232000  1.00000000  1
  V  V3  1  1.00000000  0.00000000  0.77241000  1
  Zn  Zn4  1  0.49852800  0.48045300  0.54725100  1
  Cr  Cr5  1  1.00000000  0.66768000  0.00000000  1
  Fe  Fe6  1  0.49957500  0.66744300  0.66170100  1
  Co  Co7  1  0.50019200  0.16218100  0.55687100  1
  Cu  Cu8  1  0.99988200  0.16642300  0.66075300  1
  Ni  Ni9  1  0.00156800  0.69356800  0.55584700  1
  Sb  Sb10  1  0.00000000  0.00000000  0.00000000  1
  Sb  Sb11  1  0.50000000  0.00000000  0.88621000  1
  Sb  Sb12  1  0.49972000  0.99111800  0.66494500  1
  Sb  Sb13  1  0.00037200  0.00032800  0.54712800  1
  Sb  Sb14  1  0.50000000  0.50000000  1.00000000  1
  Sb  Sb15  1  1.00000000  0.50000000  0.88621000  1
  Sb  Sb16  1  0.50000000  0.50000000  0.77241000  1
  Sb  Sb17  1  0.99978000  0.50090900  0.65563600  1
  Sb  Sb18  1  0.00000000  0.33232000  0.00000000  1
  Sb  Sb19  1  0.50000000  0.33232000  0.88621000  1
  Sb  Sb20  1  1.00000000  0.33232000  0.77241000  1
  Sb  Sb21  1  0.49963900  0.34422900  0.65545100  1
  Sb  Sb22  1  0.99910700  0.32700700  0.54761400  1
  Sb  Sb23  1  0.99992400  0.83954300  0.66170400  1
  Sb  Sb24  1  0.50063800  0.83230400  0.55281900  1
  Sb  Sb25  1  0.50000000  0.16768000  1.00000000  1
  Sb  Sb26  1  1.00000000  0.16768000  0.88621000  1
  Sb  Sb27  1  0.50000000  0.16768000  0.77241000  1
  Sb  Sb28  1  0.50000000  0.66768000  0.88621000  1
  Sb  Sb29  1  1.00000000  0.66768000  0.77241000  1
  Cl  Cl30  1  0.50895200  0.50927700  0.47387000  1
  O  O31  1  0.00000000  0.17164000  0.95506000  1
  O  O32  1  0.50000000  0.17164000  0.84126000  1
  O  O33  1  0.99980400  0.15525700  0.72934800  1
  O  O34  1  0.49867900  0.15814900  0.62230200  1
  O  O35  1  0.50000000  0.17164000  0.93115000  1
  O  O36  1  1.00000000  0.17164000  0.81736000  1
  O  O37  1  0.50019200  0.17583600  0.70497100  1
  O  O38  1  0.00090400  0.16111900  0.59164300  1
  O  O39  1  0.30253000  0.67164000  1.00000000  1
  O  O40  1  0.80253000  0.67164000  0.88621000  1
  O  O41  1  0.30253000  0.67164000  0.77241000  1
  O  O42  1  0.81091600  0.66889700  0.66134800  1
  O  O43  1  0.28071200  0.69574900  0.54467300  1
  O  O44  1  0.69747000  0.67164000  1.00000000  1
  O  O45  1  0.19747000  0.67164000  0.88621000  1
  O  O46  1  0.69747000  0.67164000  0.77241000  1
  O  O47  1  0.18845500  0.66873800  0.66148700  1
  O  O48  1  0.72479600  0.69949500  0.54442700  1
  O  O49  1  0.30253000  0.32836000  1.00000000  1
  O  O50  1  0.80253000  0.32836000  0.88621000  1
  O  O51  1  0.30253000  0.32836000  0.77241000  1
  O  O52  1  0.80277200  0.34239900  0.66181500  1
  O  O53  1  0.31548000  0.30477600  0.55477200  1
  O  O54  1  0.69747000  0.32836000  1.00000000  1
  O  O55  1  0.19747000  0.32836000  0.88621000  1
  O  O56  1  0.69747000  0.32836000  0.77241000  1
  O  O57  1  0.19639500  0.34216500  0.66216500  1
  O  O58  1  0.68507700  0.30527200  0.55542700  1
  O  O59  1  0.00000000  0.82836000  0.95506000  1
  O  O60  1  0.50000000  0.82836000  0.84126000  1
  O  O61  1  0.99978400  0.84468700  0.72933600  1
  O  O62  1  0.49944800  0.83249500  0.61906300  1
  O  O63  1  0.50000000  0.82836000  0.93115000  1
  O  O64  1  0.00000000  0.82836000  0.81736000  1
  O  O65  1  0.50004100  0.82631700  0.70428600  1
  O  O66  1  0.00150400  0.85275600  0.59534800  1
  O  O67  1  0.00000000  0.50000000  0.95668000  1
  O  O68  1  0.50000000  0.50000000  0.84289000  1
  O  O69  1  0.99950800  0.49998000  0.72830400  1
  O  O70  1  0.49919000  0.51202200  0.61653600  1
  O  O71  1  0.50000000  0.50000000  0.92952000  1
  O  O72  1  0.00000000  0.50000000  0.81573000  1
  O  O73  1  0.49999500  0.49940700  0.70448500  1
  O  O74  1  0.00154900  0.49763300  0.58880700  1
  O  O75  1  0.30966000  0.00000000  1.00000000  1
  O  O76  1  0.80966000  0.00000000  0.88621000  1
  O  O77  1  0.30966000  0.00000000  0.77241000  1
  O  O78  1  0.80048900  0.99614700  0.66264000  1
  O  O79  1  0.32054700  0.00897600  0.54964100  1
  O  O80  1  0.69034000  0.00000000  1.00000000  1
  O  O81  1  0.19034000  0.00000000  0.88621000  1
  O  O82  1  0.69034000  0.00000000  0.77241000  1
  O  O83  1  0.19903100  0.99626300  0.66290300  1
  O  O84  1  0.67973000  0.00953100  0.54974300  1
