# generated using pymatgen
data_MgTiMnVZnCrFeCoCuNiSb20ClO54
_symmetry_space_group_name_H-M   'P 1'
_cell_length_a   6.65395600
_cell_length_b   9.44204700
_cell_length_c   29.75716300
_cell_angle_alpha   90.04585200
_cell_angle_beta   89.94479500
_cell_angle_gamma   89.95297600
_symmetry_Int_Tables_number   1
_chemical_formula_structural   MgTiMnVZnCrFeCoCuNiSb20ClO54
_chemical_formula_sum
'Mg1 Ti1 Mn1 V1 Zn1 Cr1 Fe1 Co1 Cu1 Ni1 Sb20 Cl1 O54'
_cell_volume   1869.55014957
_cell_formula_units_Z   1
loop_
 _symmetry_equiv_pos_site_id
 _symmetry_equiv_pos_as_xyz
  1  'x, y, z'
loop_
 _atom_site_type_symbol
 _atom_site_label
 _atom_site_symmetry_multiplicity
 _atom_site_fract_x
 _atom_site_fract_y
 _atom_site_fract_z
 _atom_site_occupancy
  Mg  Mg0  1  0.50000000  0.83232000  0.00000000  1
  Ti  Ti1  1  0.50000000  0.50000000  0.00000000  1
  Mn  Mn2  1  0.50000000  0.83232000  0.77241000  1
  V  V3  1  0.50000000  0.16768000  0.77241000  1
  Zn  Zn4  1  0.49929200  0.48328400  0.56223100  1
  Cr  Cr5  1  0.00000000  0.00000000  0.00000000  1
  Fe  Fe6  1  0.99789500  0.16697300  0.66049100  1
  Co  Co7  1  0.49851600  0.00576900  0.66651500  1
  Cu  Cu8  1  0.00000000  0.16768000  0.88621000  1
  Ni  Ni9  1  0.49829500  0.33190200  0.66869300  1
  Sb  Sb10  1  0.50000000  0.00000000  0.88621000  1
  Sb  Sb11  1  0.00000000  0.00000000  0.77241000  1
  Sb  Sb12  1  0.00630400  0.99832800  0.53786200  1
  Sb  Sb13  1  1.00000000  0.50000000  0.88621000  1
  Sb  Sb14  1  0.50000000  0.50000000  0.77241000  1
  Sb  Sb15  1  0.99989000  0.48384100  0.65730100  1
  Sb  Sb16  1  0.00000000  0.33232000  0.00000000  1
  Sb  Sb17  1  0.50000000  0.33232000  0.88621000  1
  Sb  Sb18  1  0.00000000  0.33232000  0.77241000  1
  Sb  Sb19  1  0.00255300  0.32058100  0.54219900  1
  Sb  Sb20  1  0.00000000  0.83232000  0.88621000  1
  Sb  Sb21  1  0.99985600  0.85041000  0.65751800  1
  Sb  Sb22  1  0.50474100  0.79448200  0.55013500  1
  Sb  Sb23  1  0.50000000  0.16768000  0.00000000  1
  Sb  Sb24  1  0.50880400  0.16116000  0.56411700  1
  Sb  Sb25  1  0.00000000  0.66768000  0.00000000  1
  Sb  Sb26  1  0.50000000  0.66768000  0.88621000  1
  Sb  Sb27  1  0.00000000  0.66768000  0.77241000  1
  Sb  Sb28  1  0.49989300  0.67339800  0.66043800  1
  Sb  Sb29  1  0.99918900  0.66356400  0.54554500  1
  Cl  Cl30  1  0.51529100  0.67525800  0.47705600  1
  O  O31  1  0.00000000  0.17164000  0.95506000  1
  O  O32  1  0.50000000  0.17164000  0.84126000  1
  O  O33  1  0.99980400  0.15525700  0.72934800  1
  O  O34  1  0.49690900  0.17026800  0.63028200  1
  O  O35  1  0.50000000  0.17164000  0.93115000  1
  O  O36  1  0.00000000  0.17164000  0.81736000  1
  O  O37  1  0.50031700  0.17038900  0.71520000  1
  O  O38  1  0.99933900  0.15317000  0.58727300  1
  O  O39  1  0.30253000  0.67164000  1.00000000  1
  O  O40  1  0.80253000  0.67164000  0.88621000  1
  O  O41  1  0.30253000  0.67164000  0.77241000  1
  O  O42  1  0.81387000  0.67145000  0.66245900  1
  O  O43  1  0.29959600  0.64824500  0.56471400  1
  O  O44  1  0.69747000  0.67164000  0.00000000  1
  O  O45  1  0.19747000  0.67164000  0.88621000  1
  O  O46  1  0.69747000  0.67164000  0.77241000  1
  O  O47  1  0.18496100  0.67202600  0.66278600  1
  O  O48  1  0.70418600  0.64799500  0.56860200  1
  O  O49  1  0.30253000  0.32836000  1.00000000  1
  O  O50  1  0.80253000  0.32836000  0.88621000  1
  O  O51  1  0.30253000  0.32836000  0.77241000  1
  O  O52  1  0.80741200  0.31990600  0.66280100  1
  O  O53  1  0.31122200  0.31794600  0.55154600  1
  O  O54  1  0.69747000  0.32836000  0.00000000  1
  O  O55  1  0.19747000  0.32836000  0.88621000  1
  O  O56  1  0.69747000  0.32836000  0.77241000  1
  O  O57  1  0.18781000  0.31808100  0.66338100  1
  O  O58  1  0.69572800  0.32556600  0.55387000  1
  O  O59  1  0.00000000  0.82836000  0.95506000  1
  O  O60  1  0.50000000  0.82836000  0.84126000  1
  O  O61  1  0.99978400  0.84468700  0.72933600  1
  O  O62  1  0.49843500  0.84058000  0.61820400  1
  O  O63  1  0.50000000  0.82836000  0.93115000  1
  O  O64  1  0.00000000  0.82836000  0.81736000  1
  O  O65  1  0.49984800  0.83631000  0.70505900  1
  O  O66  1  0.00541000  0.83870500  0.58924400  1
  O  O67  1  0.00000000  0.50000000  0.95668000  1
  O  O68  1  0.50000000  0.50000000  0.84289000  1
  O  O69  1  0.99950800  0.49998000  0.72830400  1
  O  O70  1  0.48930000  0.49314000  0.62811900  1
  O  O71  1  0.50000000  0.50000000  0.92952000  1
  O  O72  1  0.00000000  0.50000000  0.81573000  1
  O  O73  1  0.50409600  0.50764600  0.70727900  1
  O  O74  1  0.00655800  0.48797300  0.58875100  1
  O  O75  1  0.30966000  1.00000000  1.00000000  1
  O  O76  1  0.80966000  0.00000000  0.88621000  1
  O  O77  1  0.30966000  1.00000000  0.77241000  1
  O  O78  1  0.80540700  0.01090400  0.66077800  1
  O  O79  1  0.29962900  0.93548700  0.53268800  1
  O  O80  1  0.69034000  0.00000000  0.00000000  1
  O  O81  1  0.19034000  1.00000000  0.88621000  1
  O  O82  1  0.69034000  0.00000000  0.77241000  1
  O  O83  1  0.19201600  0.01130300  0.66109500  1
  O  O84  1  0.71896200  0.92720600  0.53170500  1
