# generated using pymatgen
data_MgTiMnVZnCrFeCoCuNiSb20ClO54
_symmetry_space_group_name_H-M   'P 1'
_cell_length_a   6.71468400
_cell_length_b   9.42398100
_cell_length_c   28.76962300
_cell_angle_alpha   89.56515800
_cell_angle_beta   89.98843900
_cell_angle_gamma   89.99572800
_symmetry_Int_Tables_number   1
_chemical_formula_structural   MgTiMnVZnCrFeCoCuNiSb20ClO54
_chemical_formula_sum
'Mg1 Ti1 Mn1 V1 Zn1 Cr1 Fe1 Co1 Cu1 Ni1 Sb20 Cl1 O54'
_cell_volume   1820.46206804
_cell_formula_units_Z   1
loop_
 _symmetry_equiv_pos_site_id
 _symmetry_equiv_pos_as_xyz
  1  'x, y, z'
loop_
 _atom_site_type_symbol
 _atom_site_label
 _atom_site_symmetry_multiplicity
 _atom_site_fract_x
 _atom_site_fract_y
 _atom_site_fract_z
 _atom_site_occupancy
  Mg  Mg0  1  0.00000000  0.83232000  0.11379000  1
  Ti  Ti1  1  0.50000000  0.50000000  0.22759000  1
  Mn  Mn2  1  0.00000000  0.66768000  0.22759000  1
  V  V3  1  0.50000000  0.16768000  0.22759000  1
  Zn  Zn4  1  0.49815800  0.49347800  0.45627100  1
  Cr  Cr5  1  0.50000000  0.33232000  0.11379000  1
  Fe  Fe6  1  0.99697600  0.67229500  0.45210700  1
  Co  Co7  1  0.50000000  0.66768000  0.11379000  1
  Cu  Cu8  1  0.00000000  0.00000000  0.22759000  1
  Ni  Ni9  1  0.49967400  0.33871700  0.33851200  1
  Sb  Sb10  1  0.00000000  0.00000000  0.00000000  1
  Sb  Sb11  1  0.50000000  0.00000000  0.11379000  1
  Sb  Sb12  1  0.49888100  0.00115100  0.33851300  1
  Sb  Sb13  1  0.00010300  0.97840000  0.46020500  1
  Sb  Sb14  1  0.50000000  0.50000000  0.00000000  1
  Sb  Sb15  1  0.00000000  0.50000000  0.11379000  1
  Sb  Sb16  1  0.00022000  0.49310900  0.34204200  1
  Sb  Sb17  1  0.00000000  0.33232000  0.00000000  1
  Sb  Sb18  1  0.00000000  0.33232000  0.22759000  1
  Sb  Sb19  1  0.99857800  0.34222400  0.46203000  1
  Sb  Sb20  1  0.50000000  0.83232000  1.00000000  1
  Sb  Sb21  1  0.50000000  0.83232000  0.22759000  1
  Sb  Sb22  1  0.99856900  0.83460200  0.33784400  1
  Sb  Sb23  1  0.49667800  0.78506100  0.49231500  1
  Sb  Sb24  1  0.50000000  0.16768000  0.00000000  1
  Sb  Sb25  1  0.00000000  0.16768000  0.11379000  1
  Sb  Sb26  1  0.99913100  0.17287400  0.34045400  1
  Sb  Sb27  1  0.50060600  0.16190500  0.44931100  1
  Sb  Sb28  1  1.00000000  0.66768000  0.00000000  1
  Sb  Sb29  1  0.49950000  0.65700400  0.34613200  1
  Cl  Cl30  1  0.49440600  0.54130800  0.53929400  1
  O  O31  1  0.00000000  0.17164000  0.04494000  1
  O  O32  1  0.50000000  0.17164000  0.15874000  1
  O  O33  1  0.00019600  0.15525700  0.27065200  1
  O  O34  1  0.50273400  0.16494600  0.38183100  1
  O  O35  1  0.50000000  0.17164000  0.06885000  1
  O  O36  1  0.00000000  0.17164000  0.18264000  1
  O  O37  1  0.49854300  0.16659900  0.29389200  1
  O  O38  1  0.99675300  0.16314500  0.41730500  1
  O  O39  1  0.69747000  0.67164000  0.00000000  1
  O  O40  1  0.19747000  0.67164000  0.11379000  1
  O  O41  1  0.69747000  0.67164000  0.22759000  1
  O  O42  1  0.19069400  0.66209400  0.34236300  1
  O  O43  1  0.71581100  0.67597700  0.46066600  1
  O  O44  1  0.30253000  0.67164000  0.00000000  1
  O  O45  1  0.80253000  0.67164000  0.11379000  1
  O  O46  1  0.30253000  0.67164000  0.22759000  1
  O  O47  1  0.80780400  0.66144100  0.34181800  1
  O  O48  1  0.27795600  0.67580200  0.46058200  1
  O  O49  1  0.69747000  0.32836000  0.00000000  1
  O  O50  1  0.19747000  0.32836000  0.11379000  1
  O  O51  1  0.69747000  0.32836000  0.22759000  1
  O  O52  1  0.19957200  0.33415200  0.34099400  1
  O  O53  1  0.68769100  0.31889800  0.45880500  1
  O  O54  1  0.30253000  0.32836000  0.00000000  1
  O  O55  1  0.80253000  0.32836000  0.11379000  1
  O  O56  1  0.30253000  0.32836000  0.22759000  1
  O  O57  1  0.79969900  0.33495400  0.34035600  1
  O  O58  1  0.30989700  0.31616500  0.45911500  1
  O  O59  1  0.00000000  0.82836000  0.04494000  1
  O  O60  1  0.50000000  0.82836000  0.15874000  1
  O  O61  1  0.00021600  0.84468700  0.27066400  1
  O  O62  1  0.50142800  0.83542600  0.38410300  1
  O  O63  1  0.50000000  0.82836000  0.06885000  1
  O  O64  1  0.00000000  0.82836000  0.18264000  1
  O  O65  1  0.49677400  0.82418600  0.29793500  1
  O  O66  1  0.99493600  0.83968400  0.40701000  1
  O  O67  1  1.00000000  0.50000000  0.04332000  1
  O  O68  1  0.50000000  0.50000000  0.15711000  1
  O  O69  1  0.00049200  0.49998000  0.27169600  1
  O  O70  1  0.49898500  0.49498000  0.38716500  1
  O  O71  1  0.50000000  0.50000000  0.07048000  1
  O  O72  1  0.00000000  0.50000000  0.18427000  1
  O  O73  1  0.49723700  0.50863100  0.29609500  1
  O  O74  1  0.99861300  0.49516800  0.41199600  1
  O  O75  1  0.69034000  1.00000000  0.00000000  1
  O  O76  1  0.19034000  0.00000000  0.11379000  1
  O  O77  1  0.69034000  1.00000000  0.22759000  1
  O  O78  1  0.19699300  0.00333300  0.34243100  1
  O  O79  1  0.69193000  0.01439300  0.46675800  1
  O  O80  1  0.30966000  0.00000000  1.00000000  1
  O  O81  1  0.80966000  1.00000000  0.11379000  1
  O  O82  1  0.30966000  0.00000000  0.22759000  1
  O  O83  1  0.80134000  0.00327700  0.34123100  1
  O  O84  1  0.30941500  0.00976300  0.46304000  1
