# generated using pymatgen
data_MgTiMnVZnCrFeCoCuNiSb20ClO54
_symmetry_space_group_name_H-M   'P 1'
_cell_length_a   6.59613600
_cell_length_b   9.70807900
_cell_length_c   28.57749100
_cell_angle_alpha   90.14433800
_cell_angle_beta   89.92355800
_cell_angle_gamma   89.99838300
_symmetry_Int_Tables_number   1
_chemical_formula_structural   MgTiMnVZnCrFeCoCuNiSb20ClO54
_chemical_formula_sum
'Mg1 Ti1 Mn1 V1 Zn1 Cr1 Fe1 Co1 Cu1 Ni1 Sb20 Cl1 O54'
_cell_volume   1829.97532998
_cell_formula_units_Z   1
loop_
 _symmetry_equiv_pos_site_id
 _symmetry_equiv_pos_as_xyz
  1  'x, y, z'
loop_
 _atom_site_type_symbol
 _atom_site_label
 _atom_site_symmetry_multiplicity
 _atom_site_fract_x
 _atom_site_fract_y
 _atom_site_fract_z
 _atom_site_occupancy
  Mg  Mg0  1  0.00000000  0.00000000  0.00000000  1
  Ti  Ti1  1  0.00000000  0.66768000  0.00000000  1
  Mn  Mn2  1  1.00000000  0.33232000  0.00000000  1
  V  V3  1  0.50000000  0.33232000  0.88621000  1
  Zn  Zn4  1  0.50301700  0.50987100  0.54702700  1
  Cr  Cr5  1  0.00000000  0.66768000  0.77241000  1
  Fe  Fe6  1  0.00052400  0.17790400  0.66496500  1
  Co  Co7  1  0.00000000  0.16768000  0.88621000  1
  Cu  Cu8  1  1.00000000  0.33232000  0.77241000  1
  Ni  Ni9  1  0.50110000  0.66860200  0.65842900  1
  Sb  Sb10  1  0.50000000  0.00000000  0.88621000  1
  Sb  Sb11  1  1.00000000  0.00000000  0.77241000  1
  Sb  Sb12  1  0.50068500  0.99529900  0.65164300  1
  Sb  Sb13  1  0.99692300  0.00637700  0.57177000  1
  Sb  Sb14  1  0.50000000  0.50000000  0.00000000  1
  Sb  Sb15  1  1.00000000  0.50000000  0.88621000  1
  Sb  Sb16  1  0.50000000  0.50000000  0.77241000  1
  Sb  Sb17  1  0.99893100  0.50038800  0.66053600  1
  Sb  Sb18  1  0.50000000  0.66768000  0.88621000  1
  Sb  Sb19  1  0.00273900  0.65048200  0.53392000  1
  Sb  Sb20  1  0.50000000  0.16768000  1.00000000  1
  Sb  Sb21  1  0.50000000  0.16768000  0.77241000  1
  Sb  Sb22  1  0.49998500  0.20379200  0.53070500  1
  Sb  Sb23  1  0.50000000  0.83232000  0.00000000  1
  Sb  Sb24  1  1.00000000  0.83232000  0.88621000  1
  Sb  Sb25  1  0.50000000  0.83232000  0.77241000  1
  Sb  Sb26  1  0.00181300  0.82085200  0.65947000  1
  Sb  Sb27  1  0.49922400  0.83183000  0.53535100  1
  Sb  Sb28  1  0.49979900  0.34397600  0.65218300  1
  Sb  Sb29  1  0.00644600  0.33276900  0.54147100  1
  Cl  Cl30  1  0.47754800  0.42152500  0.46788500  1
  O  O31  1  1.00000000  0.82836000  0.95506000  1
  O  O32  1  0.50000000  0.82836000  0.84126000  1
  O  O33  1  0.00019600  0.84474300  0.72934800  1
  O  O34  1  0.50326500  0.83824700  0.60787800  1
  O  O35  1  0.50000000  0.82836000  0.93115000  1
  O  O36  1  0.00000000  0.82836000  0.81736000  1
  O  O37  1  0.50006000  0.84354500  0.70090300  1
  O  O38  1  0.99886300  0.80791300  0.58803500  1
  O  O39  1  0.69747000  0.32836000  0.00000000  1
  O  O40  1  0.19747000  0.32836000  0.88621000  1
  O  O41  1  0.69747000  0.32836000  0.77241000  1
  O  O42  1  0.19509800  0.33715700  0.66140800  1
  O  O43  1  0.70064100  0.33911500  0.55649400  1
  O  O44  1  0.30253000  0.32836000  0.00000000  1
  O  O45  1  0.80253000  0.32836000  0.88621000  1
  O  O46  1  0.30253000  0.32836000  0.77241000  1
  O  O47  1  0.80485700  0.33663400  0.66149400  1
  O  O48  1  0.30612500  0.33722500  0.56100100  1
  O  O49  1  0.69747000  0.67164000  0.00000000  1
  O  O50  1  0.19747000  0.67164000  0.88621000  1
  O  O51  1  0.69747000  0.67164000  0.77241000  1
  O  O52  1  0.19797400  0.66656400  0.66051700  1
  O  O53  1  0.69825600  0.67420500  0.54265600  1
  O  O54  1  0.30253000  0.67164000  0.00000000  1
  O  O55  1  0.80253000  0.67164000  0.88621000  1
  O  O56  1  0.30253000  0.67164000  0.77241000  1
  O  O57  1  0.80328900  0.66776500  0.66114400  1
  O  O58  1  0.30486400  0.67285900  0.54527200  1
  O  O59  1  1.00000000  0.17164000  0.95506000  1
  O  O60  1  0.50000000  0.17164000  0.84126000  1
  O  O61  1  0.00021600  0.15531300  0.72933600  1
  O  O62  1  0.50444900  0.16309900  0.61100500  1
  O  O63  1  0.50000000  0.17164000  0.93115000  1
  O  O64  1  1.00000000  0.17164000  0.81736000  1
  O  O65  1  0.49987300  0.15931300  0.69944600  1
  O  O66  1  0.99634300  0.19291600  0.59597200  1
  O  O67  1  1.00000000  0.50000000  0.95668000  1
  O  O68  1  0.50000000  0.50000000  0.84289000  1
  O  O69  1  0.00049200  0.50002000  0.72830400  1
  O  O70  1  0.50767000  0.51284700  0.61641100  1
  O  O71  1  0.50000000  0.50000000  0.92952000  1
  O  O72  1  1.00000000  0.50000000  0.81573000  1
  O  O73  1  0.50001100  0.50173200  0.70319800  1
  O  O74  1  0.99972600  0.50262600  0.58669600  1
  O  O75  1  0.69034000  1.00000000  1.00000000  1
  O  O76  1  0.19034000  0.00000000  0.88621000  1
  O  O77  1  0.69034000  0.00000000  0.77241000  1
  O  O78  1  0.18630200  0.99017500  0.64815900  1
  O  O79  1  0.75244600  0.00761000  0.53717900  1
  O  O80  1  0.30966000  1.00000000  1.00000000  1
  O  O81  1  0.80966000  0.00000000  0.88621000  1
  O  O82  1  0.30966000  0.00000000  0.77241000  1
  O  O83  1  0.81679400  0.98985100  0.64795000  1
  O  O84  1  0.24265800  0.00889700  0.53749000  1
