# generated using pymatgen
data_MgTiMnVZnCrFeCoCuNiSb20ClO54
_symmetry_space_group_name_H-M   'P 1'
_cell_length_a   6.69609100
_cell_length_b   9.47165600
_cell_length_c   29.25782000
_cell_angle_alpha   89.79807500
_cell_angle_beta   89.76654500
_cell_angle_gamma   89.70791100
_symmetry_Int_Tables_number   1
_chemical_formula_structural   MgTiMnVZnCrFeCoCuNiSb20ClO54
_chemical_formula_sum
'Mg1 Ti1 Mn1 V1 Zn1 Cr1 Fe1 Co1 Cu1 Ni1 Sb20 Cl1 O54'
_cell_volume   1855.56987601
_cell_formula_units_Z   1
loop_
 _symmetry_equiv_pos_site_id
 _symmetry_equiv_pos_as_xyz
  1  'x, y, z'
loop_
 _atom_site_type_symbol
 _atom_site_label
 _atom_site_symmetry_multiplicity
 _atom_site_fract_x
 _atom_site_fract_y
 _atom_site_fract_z
 _atom_site_occupancy
  Mg  Mg0  1  0.50000000  0.83232000  0.00000000  1
  Ti  Ti1  1  0.00074300  0.16455700  0.66114100  1
  Mn  Mn2  1  0.04046400  0.99998400  0.57240600  1
  V  V3  1  0.00000000  1.00000000  0.77241000  1
  Zn  Zn4  1  0.45611500  0.51481500  0.53738200  1
  Cr  Cr5  1  0.99927800  0.83755300  0.66173100  1
  Fe  Fe6  1  0.00000000  0.50000000  0.88621000  1
  Co  Co7  1  0.50000000  0.16768000  0.77241000  1
  Cu  Cu8  1  0.42896600  0.81065600  0.55054600  1
  Ni  Ni9  1  0.50000000  0.33232000  0.88621000  1
  Sb  Sb10  1  0.00000000  0.00000000  0.00000000  1
  Sb  Sb11  1  0.50000000  1.00000000  0.88621000  1
  Sb  Sb12  1  0.50209900  0.00298600  0.65933300  1
  Sb  Sb13  1  0.50000000  0.50000000  0.00000000  1
  Sb  Sb14  1  0.50000000  0.50000000  0.77241000  1
  Sb  Sb15  1  0.01020000  0.50649300  0.64976600  1
  Sb  Sb16  1  1.00000000  0.33232000  0.00000000  1
  Sb  Sb17  1  1.00000000  0.33232000  0.77241000  1
  Sb  Sb18  1  0.50279300  0.32716100  0.65517700  1
  Sb  Sb19  1  0.99026400  0.32264100  0.53864800  1
  Sb  Sb20  1  0.00000000  0.83232000  0.88621000  1
  Sb  Sb21  1  0.50000000  0.83232000  0.77241000  1
  Sb  Sb22  1  0.50000000  0.16768000  0.00000000  1
  Sb  Sb23  1  1.00000000  0.16768000  0.88621000  1
  Sb  Sb24  1  0.51013300  0.19398200  0.53502300  1
  Sb  Sb25  1  0.00000000  0.66768000  0.00000000  1
  Sb  Sb26  1  0.50000000  0.66768000  0.88621000  1
  Sb  Sb27  1  0.00000000  0.66768000  0.77241000  1
  Sb  Sb28  1  0.50417200  0.67041000  0.65559600  1
  Sb  Sb29  1  0.94850000  0.69509200  0.53724300  1
  Cl  Cl30  1  0.53009900  0.38310500  0.46739500  1
  O  O31  1  1.00000000  0.17164000  0.95506000  1
  O  O32  1  0.50000000  0.17164000  0.84126000  1
  O  O33  1  0.99980400  0.15525700  0.72934800  1
  O  O34  1  0.49987200  0.15848800  0.61306500  1
  O  O35  1  0.50000000  0.17164000  0.93115000  1
  O  O36  1  1.00000000  0.17164000  0.81736000  1
  O  O37  1  0.50438400  0.16637200  0.70320300  1
  O  O38  1  0.01415000  0.18250100  0.59404600  1
  O  O39  1  0.30253000  0.67164000  0.00000000  1
  O  O40  1  0.80253000  0.67164000  0.88621000  1
  O  O41  1  0.30253000  0.67164000  0.77241000  1
  O  O42  1  0.80382100  0.67828400  0.66273900  1
  O  O43  1  0.25358500  0.67447000  0.52629800  1
  O  O44  1  0.69747000  0.67164000  0.00000000  1
  O  O45  1  0.19747000  0.67164000  0.88621000  1
  O  O46  1  0.69747000  0.67164000  0.77241000  1
  O  O47  1  0.20426100  0.68561000  0.66281400  1
  O  O48  1  0.63922300  0.67764700  0.54537700  1
  O  O49  1  0.30253000  0.32836000  0.00000000  1
  O  O50  1  0.80253000  0.32836000  0.88621000  1
  O  O51  1  0.30253000  0.32836000  0.77241000  1
  O  O52  1  0.80241600  0.31624800  0.66096800  1
  O  O53  1  0.30275900  0.33519800  0.55458900  1
  O  O54  1  0.69747000  0.32836000  0.00000000  1
  O  O55  1  0.19747000  0.32836000  0.88621000  1
  O  O56  1  0.69747000  0.32836000  0.77241000  1
  O  O57  1  0.20449800  0.30911200  0.66351300  1
  O  O58  1  0.69875900  0.33247400  0.56090700  1
  O  O59  1  0.00000000  0.82836000  0.95506000  1
  O  O60  1  0.50000000  0.82836000  0.84126000  1
  O  O61  1  0.99978400  0.84468700  0.72933600  1
  O  O62  1  0.51221900  0.84130800  0.61546100  1
  O  O63  1  0.50000000  0.82836000  0.93115000  1
  O  O64  1  0.00000000  0.82836000  0.81736000  1
  O  O65  1  0.50273100  0.83062700  0.70356700  1
  O  O66  1  0.99661800  0.81969200  0.59441000  1
  O  O67  1  0.00000000  0.50000000  0.95668000  1
  O  O68  1  0.50000000  0.50000000  0.84289000  1
  O  O69  1  0.99950800  0.49998000  0.72830400  1
  O  O70  1  0.48451200  0.50234700  0.61580800  1
  O  O71  1  0.50000000  0.50000000  0.92952000  1
  O  O72  1  0.00000000  0.50000000  0.81573000  1
  O  O73  1  0.50245100  0.50140800  0.70192600  1
  O  O74  1  0.98787200  0.51082900  0.57354000  1
  O  O75  1  0.30966000  0.00000000  0.00000000  1
  O  O76  1  0.80966000  1.00000000  0.88621000  1
  O  O77  1  0.30966000  1.00000000  0.77241000  1
  O  O78  1  0.80929600  0.00090800  0.65939400  1
  O  O79  1  0.27323300  0.97793300  0.54988700  1
  O  O80  1  0.69034000  0.00000000  0.00000000  1
  O  O81  1  0.19034000  1.00000000  0.88621000  1
  O  O82  1  0.69034000  1.00000000  0.77241000  1
  O  O83  1  0.19164200  0.99788900  0.65700100  1
  O  O84  1  0.86446100  0.00315600  0.53304200  1
