# generated using pymatgen
data_MgTiMnVZnCrFeCoCuNiSb20ClO54
_symmetry_space_group_name_H-M   'P 1'
_cell_length_a   6.76371300
_cell_length_b   9.46201900
_cell_length_c   29.76881400
_cell_angle_alpha   90.05108000
_cell_angle_beta   89.93463800
_cell_angle_gamma   89.99326400
_symmetry_Int_Tables_number   1
_chemical_formula_structural   MgTiMnVZnCrFeCoCuNiSb20ClO54
_chemical_formula_sum
'Mg1 Ti1 Mn1 V1 Zn1 Cr1 Fe1 Co1 Cu1 Ni1 Sb20 Cl1 O54'
_cell_volume   1905.15388764
_cell_formula_units_Z   1
loop_
 _symmetry_equiv_pos_site_id
 _symmetry_equiv_pos_as_xyz
  1  'x, y, z'
loop_
 _atom_site_type_symbol
 _atom_site_label
 _atom_site_symmetry_multiplicity
 _atom_site_fract_x
 _atom_site_fract_y
 _atom_site_fract_z
 _atom_site_occupancy
  Mg  Mg0  1  0.00083500  0.67324500  0.43796200  1
  Ti  Ti1  1  0.00000000  0.66768000  0.22759000  1
  Mn  Mn2  1  0.99972200  0.17571700  0.33195400  1
  V  V3  1  0.00000000  0.33232000  0.22759000  1
  Zn  Zn4  1  0.49952000  0.50649900  0.44796100  1
  Cr  Cr5  1  0.50000000  0.50000000  0.22759000  1
  Fe  Fe6  1  0.49902300  0.64665600  0.33380200  1
  Co  Co7  1  0.50030900  0.33779100  0.33693300  1
  Cu  Cu8  1  0.00000000  0.00000000  0.22759000  1
  Ni  Ni9  1  0.50000000  0.50000000  0.00000000  1
  Sb  Sb10  1  0.00000000  0.00000000  0.00000000  1
  Sb  Sb11  1  0.50000000  1.00000000  0.11379000  1
  Sb  Sb12  1  0.49923800  0.99995000  0.33626800  1
  Sb  Sb13  1  0.99949000  0.00600400  0.44803000  1
  Sb  Sb14  1  0.00000000  0.50000000  0.11379000  1
  Sb  Sb15  1  0.99971600  0.49406000  0.33791300  1
  Sb  Sb16  1  0.00000000  0.66768000  0.00000000  1
  Sb  Sb17  1  0.50000000  0.66768000  0.11379000  1
  Sb  Sb18  1  0.50000000  0.16768000  0.00000000  1
  Sb  Sb19  1  0.00000000  0.16768000  0.11379000  1
  Sb  Sb20  1  0.50000000  0.16768000  0.22759000  1
  Sb  Sb21  1  0.49844600  0.19273000  0.44644000  1
  Sb  Sb22  1  0.50000000  0.83232000  0.00000000  1
  Sb  Sb23  1  0.00000000  0.83232000  0.11379000  1
  Sb  Sb24  1  0.50000000  0.83232000  0.22759000  1
  Sb  Sb25  1  0.99921700  0.83710300  0.33586300  1
  Sb  Sb26  1  0.50005900  0.81941400  0.44206800  1
  Sb  Sb27  1  0.00000000  0.33232000  0.00000000  1
  Sb  Sb28  1  0.50000000  0.33232000  0.11379000  1
  Sb  Sb29  1  0.99629600  0.33333333  0.44718600  1
  Cl  Cl30  1  0.50971400  0.38690000  0.52010200  1
  O  O31  1  0.00000000  0.82836000  0.04494000  1
  O  O32  1  0.50000000  0.82836000  0.15874000  1
  O  O33  1  0.99980400  0.84474300  0.27065200  1
  O  O34  1  0.49821900  0.82365500  0.37573800  1
  O  O35  1  0.50000000  0.82836000  0.06885000  1
  O  O36  1  0.00000000  0.82836000  0.18264000  1
  O  O37  1  0.49977500  0.82762900  0.29476200  1
  O  O38  1  0.00158800  0.84743400  0.40331900  1
  O  O39  1  0.30253000  0.32836000  0.00000000  1
  O  O40  1  0.80253000  0.32836000  0.11379000  1
  O  O41  1  0.30253000  0.32836000  0.22759000  1
  O  O42  1  0.81143600  0.32592100  0.33537700  1
  O  O43  1  0.29772600  0.34165900  0.43239000  1
  O  O44  1  0.69747000  0.32836000  0.00000000  1
  O  O45  1  0.19747000  0.32836000  0.11379000  1
  O  O46  1  0.69747000  0.32836000  0.22759000  1
  O  O47  1  0.18786400  0.32609300  0.33531000  1
  O  O48  1  0.69751900  0.34105800  0.43033100  1
  O  O49  1  0.30253000  0.67164000  0.00000000  1
  O  O50  1  0.80253000  0.67164000  0.11379000  1
  O  O51  1  0.30253000  0.67164000  0.22759000  1
  O  O52  1  0.81034800  0.66611600  0.33867400  1
  O  O53  1  0.29651900  0.67797600  0.45473200  1
  O  O54  1  0.69747000  0.67164000  0.00000000  1
  O  O55  1  0.19747000  0.67164000  0.11379000  1
  O  O56  1  0.69747000  0.67164000  0.22759000  1
  O  O57  1  0.18832800  0.66624500  0.33844600  1
  O  O58  1  0.70443800  0.67884600  0.45454900  1
  O  O59  1  0.00000000  0.17164000  0.04494000  1
  O  O60  1  0.50000000  0.17164000  0.15874000  1
  O  O61  1  0.99978400  0.15531300  0.27066400  1
  O  O62  1  0.49617000  0.16020500  0.37838900  1
  O  O63  1  0.50000000  0.17164000  0.06885000  1
  O  O64  1  0.00000000  0.17164000  0.18264000  1
  O  O65  1  0.49987100  0.16585500  0.29460100  1
  O  O66  1  0.00010800  0.16416300  0.40260400  1
  O  O67  1  0.00000000  0.50000000  0.04332000  1
  O  O68  1  0.50000000  0.50000000  0.15711000  1
  O  O69  1  0.99950800  0.50002000  0.27169600  1
  O  O70  1  0.49664500  0.51407700  0.37456400  1
  O  O71  1  0.50000000  0.50000000  0.07048000  1
  O  O72  1  0.00000000  0.50000000  0.18427000  1
  O  O73  1  0.49982600  0.50097300  0.29145400  1
  O  O74  1  0.99932000  0.49843800  0.40476600  1
  O  O75  1  0.30966000  0.00000000  0.00000000  1
  O  O76  1  0.80966000  1.00000000  0.11379000  1
  O  O77  1  0.30966000  0.00000000  0.22759000  1
  O  O78  1  0.80495200  0.00397200  0.33704400  1
  O  O79  1  0.31332000  0.98230400  0.45025100  1
  O  O80  1  0.69034000  1.00000000  0.00000000  1
  O  O81  1  0.19034000  0.00000000  0.11379000  1
  O  O82  1  0.69034000  1.00000000  0.22759000  1
  O  O83  1  0.19368900  0.00373300  0.33686200  1
  O  O84  1  0.68609300  0.98383500  0.44873600  1
