# generated using pymatgen
data_MgTiMnVZnCrFeCoCuNiSb20ClO54
_symmetry_space_group_name_H-M   'P 1'
_cell_length_a   6.72111300
_cell_length_b   9.53379500
_cell_length_c   29.39480100
_cell_angle_alpha   89.99915700
_cell_angle_beta   89.35333700
_cell_angle_gamma   89.94620100
_symmetry_Int_Tables_number   1
_chemical_formula_structural   MgTiMnVZnCrFeCoCuNiSb20ClO54
_chemical_formula_sum
'Mg1 Ti1 Mn1 V1 Zn1 Cr1 Fe1 Co1 Cu1 Ni1 Sb20 Cl1 O54'
_cell_volume   1883.43084222
_cell_formula_units_Z   1
loop_
 _symmetry_equiv_pos_site_id
 _symmetry_equiv_pos_as_xyz
  1  'x, y, z'
loop_
 _atom_site_type_symbol
 _atom_site_label
 _atom_site_symmetry_multiplicity
 _atom_site_fract_x
 _atom_site_fract_y
 _atom_site_fract_z
 _atom_site_occupancy
  Mg  Mg0  1  0.46149600  0.85246400  0.45434900  1
  Ti  Ti1  1  0.50000000  0.83232000  0.22759000  1
  Mn  Mn2  1  0.07241800  0.31613100  0.43100800  1
  V  V3  1  0.50000000  0.66768000  0.11379000  1
  Zn  Zn4  1  0.48293700  0.54260000  0.46123100  1
  Cr  Cr5  1  0.50000000  0.16768000  0.00000000  1
  Fe  Fe6  1  0.98590400  0.16743400  0.34017400  1
  Co  Co7  1  1.00000000  0.66768000  0.22759000  1
  Cu  Cu8  1  0.45995600  0.16359800  0.45931500  1
  Ni  Ni9  1  1.00000000  0.83232000  0.11379000  1
  Sb  Sb10  1  0.00000000  0.00000000  0.00000000  1
  Sb  Sb11  1  0.50000000  1.00000000  0.11379000  1
  Sb  Sb12  1  1.00000000  0.00000000  0.22759000  1
  Sb  Sb13  1  0.49393700  0.00144100  0.34056100  1
  Sb  Sb14  1  0.95662800  0.99720000  0.45515300  1
  Sb  Sb15  1  0.50000000  0.50000000  0.00000000  1
  Sb  Sb16  1  1.00000000  0.50000000  0.11379000  1
  Sb  Sb17  1  0.50000000  0.50000000  0.22759000  1
  Sb  Sb18  1  0.98665400  0.49824700  0.34005300  1
  Sb  Sb19  1  1.00000000  0.33232000  0.00000000  1
  Sb  Sb20  1  0.50000000  0.33232000  0.11379000  1
  Sb  Sb21  1  1.00000000  0.33232000  0.22759000  1
  Sb  Sb22  1  0.48984000  0.33598300  0.35116700  1
  Sb  Sb23  1  0.50000000  0.83232000  0.00000000  1
  Sb  Sb24  1  0.99763000  0.84474100  0.34037100  1
  Sb  Sb25  1  1.00000000  0.16768000  0.11379000  1
  Sb  Sb26  1  0.50000000  0.16768000  0.22759000  1
  Sb  Sb27  1  0.00000000  0.66768000  0.00000000  1
  Sb  Sb28  1  0.49490500  0.67172200  0.34350900  1
  Sb  Sb29  1  0.97155100  0.62852700  0.46814400  1
  Cl  Cl30  1  0.55852500  0.35726400  0.50659300  1
  O  O31  1  1.00000000  0.17164000  0.04494000  1
  O  O32  1  0.50000000  0.17164000  0.15874000  1
  O  O33  1  0.00019600  0.15525700  0.27065200  1
  O  O34  1  0.51246600  0.15468400  0.38523400  1
  O  O35  1  0.50000000  0.17164000  0.06885000  1
  O  O36  1  1.00000000  0.17164000  0.18264000  1
  O  O37  1  0.49024900  0.17200700  0.29734000  1
  O  O38  1  0.96719500  0.15747600  0.40763300  1
  O  O39  1  0.69747000  0.67164000  0.00000000  1
  O  O40  1  0.19747000  0.67164000  0.11379000  1
  O  O41  1  0.69747000  0.67164000  0.22759000  1
  O  O42  1  0.18793600  0.67111300  0.34034200  1
  O  O43  1  0.68458200  0.69547700  0.45944000  1
  O  O44  1  0.30253000  0.67164000  0.00000000  1
  O  O45  1  0.80253000  0.67164000  0.11379000  1
  O  O46  1  0.30253000  0.67164000  0.22759000  1
  O  O47  1  0.80021400  0.67571900  0.33774500  1
  O  O48  1  0.26544500  0.68569000  0.45907700  1
  O  O49  1  0.69747000  0.32836000  0.00000000  1
  O  O50  1  0.19747000  0.32836000  0.11379000  1
  O  O51  1  0.69747000  0.32836000  0.22759000  1
  O  O52  1  0.18237000  0.33073500  0.34382600  1
  O  O53  1  0.99155200  0.31417500  0.48214400  1
  O  O54  1  0.30253000  0.32836000  0.00000000  1
  O  O55  1  0.80253000  0.32836000  0.11379000  1
  O  O56  1  0.30253000  0.32836000  0.22759000  1
  O  O57  1  0.79355800  0.33168000  0.33939300  1
  O  O58  1  0.31889800  0.32215900  0.43282600  1
  O  O59  1  1.00000000  0.82836000  0.04494000  1
  O  O60  1  0.50000000  0.82836000  0.15874000  1
  O  O61  1  0.00021600  0.84468700  0.27066400  1
  O  O62  1  0.48812500  0.84134100  0.38427900  1
  O  O63  1  0.50000000  0.82836000  0.06885000  1
  O  O64  1  1.00000000  0.82836000  0.18264000  1
  O  O65  1  0.49389300  0.83493800  0.29588900  1
  O  O66  1  0.97990900  0.83961000  0.40772100  1
  O  O67  1  1.00000000  0.50000000  0.04332000  1
  O  O68  1  0.50000000  0.50000000  0.15711000  1
  O  O69  1  0.00049200  0.49998000  0.27169600  1
  O  O70  1  0.51347700  0.51432400  0.38883200  1
  O  O71  1  0.50000000  0.50000000  0.07048000  1
  O  O72  1  1.00000000  0.50000000  0.18427000  1
  O  O73  1  0.48713600  0.49618000  0.30126300  1
  O  O74  1  0.97932300  0.48821600  0.41109900  1
  O  O75  1  0.69034000  1.00000000  1.00000000  1
  O  O76  1  0.19034000  1.00000000  0.11379000  1
  O  O77  1  0.69034000  1.00000000  0.22759000  1
  O  O78  1  0.19258100  0.00492500  0.33899100  1
  O  O79  1  0.65419000  0.02049100  0.46471000  1
  O  O80  1  0.30966000  1.00000000  0.00000000  1
  O  O81  1  0.80966000  1.00000000  0.11379000  1
  O  O82  1  0.30966000  1.00000000  0.22759000  1
  O  O83  1  0.79442400  0.99973500  0.33613200  1
  O  O84  1  0.25878000  0.01784400  0.46221000  1
