# generated using pymatgen
data_MgTiMnVZnCrFeCoCuNiSb20ClO54
_symmetry_space_group_name_H-M   'P 1'
_cell_length_a   6.69507800
_cell_length_b   9.63445600
_cell_length_c   29.27465800
_cell_angle_alpha   89.94578100
_cell_angle_beta   89.08867700
_cell_angle_gamma   89.58069100
_symmetry_Int_Tables_number   1
_chemical_formula_structural   MgTiMnVZnCrFeCoCuNiSb20ClO54
_chemical_formula_sum
'Mg1 Ti1 Mn1 V1 Zn1 Cr1 Fe1 Co1 Cu1 Ni1 Sb20 Cl1 O54'
_cell_volume   1888.02591596
_cell_formula_units_Z   1
loop_
 _symmetry_equiv_pos_site_id
 _symmetry_equiv_pos_as_xyz
  1  'x, y, z'
loop_
 _atom_site_type_symbol
 _atom_site_label
 _atom_site_symmetry_multiplicity
 _atom_site_fract_x
 _atom_site_fract_y
 _atom_site_fract_z
 _atom_site_occupancy
  Mg  Mg0  1  0.50000000  0.83232000  0.22759000  1
  Ti  Ti1  1  0.50000000  0.33232000  0.11379000  1
  Mn  Mn2  1  0.46535700  0.99164700  0.33928600  1
  V  V3  1  0.93856100  0.81790000  0.33602400  1
  Zn  Zn4  1  0.51138500  0.50161800  0.44011600  1
  Cr  Cr5  1  0.50000000  0.66768000  0.11379000  1
  Fe  Fe6  1  0.45398200  0.67595800  0.33826600  1
  Co  Co7  1  0.50120200  0.34560500  0.33594700  1
  Cu  Cu8  1  0.00985100  0.18505500  0.33467500  1
  Ni  Ni9  1  0.00000000  0.00000000  0.00000000  1
  Sb  Sb10  1  0.50000000  0.00000000  0.11379000  1
  Sb  Sb11  1  0.00000000  0.00000000  0.22759000  1
  Sb  Sb12  1  0.05107700  0.00722200  0.41236400  1
  Sb  Sb13  1  0.50000000  0.50000000  0.00000000  1
  Sb  Sb14  1  0.00000000  0.50000000  0.11379000  1
  Sb  Sb15  1  0.50000000  0.50000000  0.22759000  1
  Sb  Sb16  1  0.00654500  0.49215700  0.34501400  1
  Sb  Sb17  1  1.00000000  0.66768000  1.00000000  1
  Sb  Sb18  1  0.00000000  0.66768000  0.22759000  1
  Sb  Sb19  1  0.96736900  0.68308800  0.45801600  1
  Sb  Sb20  1  0.50000000  0.16768000  0.00000000  1
  Sb  Sb21  1  0.00000000  0.16768000  0.11379000  1
  Sb  Sb22  1  0.50000000  0.16768000  0.22759000  1
  Sb  Sb23  1  0.52724700  0.17749300  0.44545800  1
  Sb  Sb24  1  0.50000000  0.83232000  0.00000000  1
  Sb  Sb25  1  0.00000000  0.83232000  0.11379000  1
  Sb  Sb26  1  0.49729100  0.81713300  0.45080300  1
  Sb  Sb27  1  0.00000000  0.33232000  0.00000000  1
  Sb  Sb28  1  0.00000000  0.33232000  0.22759000  1
  Sb  Sb29  1  0.00806400  0.32649900  0.45687500  1
  Cl  Cl30  1  0.74780300  0.53025100  0.51606200  1
  O  O31  1  0.00000000  0.82836000  0.04494000  1
  O  O32  1  0.50000000  0.82836000  0.15874000  1
  O  O33  1  0.99980400  0.84474300  0.27065200  1
  O  O34  1  0.45012600  0.84301900  0.38205800  1
  O  O35  1  0.50000000  0.82836000  0.06885000  1
  O  O36  1  0.00000000  0.82836000  0.18264000  1
  O  O37  1  0.46289200  0.83577500  0.29982100  1
  O  O38  1  0.01585000  0.80537500  0.39616200  1
  O  O39  1  0.30253000  0.32836000  0.00000000  1
  O  O40  1  0.80253000  0.32836000  0.11379000  1
  O  O41  1  0.30253000  0.32836000  0.22759000  1
  O  O42  1  0.79376800  0.34301000  0.33598900  1
  O  O43  1  0.32633900  0.33737700  0.45108100  1
  O  O44  1  0.69747000  0.32836000  0.00000000  1
  O  O45  1  0.19747000  0.32836000  0.11379000  1
  O  O46  1  0.69747000  0.32836000  0.22759000  1
  O  O47  1  0.21670000  0.34613500  0.33316500  1
  O  O48  1  0.71065300  0.33717500  0.43426000  1
  O  O49  1  0.30253000  0.67164000  0.00000000  1
  O  O50  1  0.80253000  0.67164000  0.11379000  1
  O  O51  1  0.30253000  0.67164000  0.22759000  1
  O  O52  1  0.78943300  0.67346800  0.33508400  1
  O  O53  1  0.31077700  0.65718400  0.45489800  1
  O  O54  1  0.69747000  0.67164000  0.00000000  1
  O  O55  1  0.19747000  0.67164000  0.11379000  1
  O  O56  1  0.69747000  0.67164000  0.22759000  1
  O  O57  1  0.16761200  0.66370800  0.33076400  1
  O  O58  1  0.69751500  0.67105700  0.42655100  1
  O  O59  1  0.00000000  0.17164000  0.04494000  1
  O  O60  1  0.50000000  0.17164000  0.15874000  1
  O  O61  1  0.99978400  0.15531300  0.27066400  1
  O  O62  1  0.49114400  0.14948700  0.37813200  1
  O  O63  1  0.50000000  0.17164000  0.06885000  1
  O  O64  1  0.00000000  0.17164000  0.18264000  1
  O  O65  1  0.49319000  0.16029600  0.29538700  1
  O  O66  1  0.04827400  0.20765000  0.39993800  1
  O  O67  1  0.00000000  0.50000000  0.04332000  1
  O  O68  1  0.50000000  0.50000000  0.15711000  1
  O  O69  1  0.99950800  0.50002000  0.27169600  1
  O  O70  1  0.47497500  0.51638400  0.37034900  1
  O  O71  1  0.50000000  0.50000000  0.07048000  1
  O  O72  1  0.00000000  0.50000000  0.18427000  1
  O  O73  1  0.50735200  0.50753500  0.29293500  1
  O  O74  1  0.01408600  0.50521500  0.41664400  1
  O  O75  1  0.30966000  1.00000000  0.00000000  1
  O  O76  1  0.80966000  0.00000000  0.11379000  1
  O  O77  1  0.30966000  1.00000000  0.22759000  1
  O  O78  1  0.77272700  0.95351100  0.33848600  1
  O  O79  1  0.26641100  0.99599200  0.45413500  1
  O  O80  1  0.69034000  0.00000000  0.00000000  1
  O  O81  1  0.19034000  1.00000000  0.11379000  1
  O  O82  1  0.69034000  0.00000000  0.22759000  1
  O  O83  1  0.16378100  0.99957400  0.34555600  1
  O  O84  1  0.79654500  0.01476400  0.44399100  1
