# generated using pymatgen
data_MgTiMnVZnCrFeCoCuNiSb20ClO54
_symmetry_space_group_name_H-M   'P 1'
_cell_length_a   6.65386300
_cell_length_b   9.51192500
_cell_length_c   29.19558300
_cell_angle_alpha   90.11535300
_cell_angle_beta   89.90424200
_cell_angle_gamma   89.97755600
_symmetry_Int_Tables_number   1
_chemical_formula_structural   MgTiMnVZnCrFeCoCuNiSb20ClO54
_chemical_formula_sum
'Mg1 Ti1 Mn1 V1 Zn1 Cr1 Fe1 Co1 Cu1 Ni1 Sb20 Cl1 O54'
_cell_volume   1847.81251148
_cell_formula_units_Z   1
loop_
 _symmetry_equiv_pos_site_id
 _symmetry_equiv_pos_as_xyz
  1  'x, y, z'
loop_
 _atom_site_type_symbol
 _atom_site_label
 _atom_site_symmetry_multiplicity
 _atom_site_fract_x
 _atom_site_fract_y
 _atom_site_fract_z
 _atom_site_occupancy
  Mg  Mg0  1  0.00000000  0.00000000  0.22759000  1
  Ti  Ti1  1  0.00000000  0.16768000  0.11379000  1
  Mn  Mn2  1  0.50080900  0.16028400  0.45361600  1
  V  V3  1  0.50000000  0.83232000  0.00000000  1
  Zn  Zn4  1  0.49884100  0.48277000  0.45915400  1
  Cr  Cr5  1  0.50000000  0.83232000  0.22759000  1
  Fe  Fe6  1  0.00000000  0.00000000  0.00000000  1
  Co  Co7  1  0.99919000  0.83776900  0.33512300  1
  Cu  Cu8  1  0.00000000  0.66768000  0.00000000  1
  Ni  Ni9  1  0.50000000  0.50000000  0.00000000  1
  Sb  Sb10  1  0.50000000  1.00000000  0.11379000  1
  Sb  Sb11  1  0.49798200  0.99710100  0.33856300  1
  Sb  Sb12  1  0.00134800  0.00818400  0.45426600  1
  Sb  Sb13  1  0.00000000  0.50000000  0.11379000  1
  Sb  Sb14  1  0.50000000  0.50000000  0.22759000  1
  Sb  Sb15  1  0.99913900  0.51578500  0.35170900  1
  Sb  Sb16  1  0.50000000  0.66768000  0.11379000  1
  Sb  Sb17  1  0.00000000  0.66768000  0.22759000  1
  Sb  Sb18  1  0.49941100  0.66813300  0.34524400  1
  Sb  Sb19  1  0.99585200  0.68675300  0.46232000  1
  Sb  Sb20  1  0.50000000  0.16768000  0.00000000  1
  Sb  Sb21  1  0.50000000  0.16768000  0.22759000  1
  Sb  Sb22  1  0.99859400  0.15950500  0.33911300  1
  Sb  Sb23  1  0.00000000  0.83232000  0.11379000  1
  Sb  Sb24  1  0.50161100  0.81880700  0.45842700  1
  Sb  Sb25  1  0.00000000  0.33232000  0.00000000  1
  Sb  Sb26  1  0.50000000  0.33232000  0.11379000  1
  Sb  Sb27  1  1.00000000  0.33232000  0.22759000  1
  Sb  Sb28  1  0.49832400  0.32944500  0.34523700  1
  Sb  Sb29  1  0.99937300  0.32315900  0.46977800  1
  Cl  Cl30  1  0.52662900  0.58850700  0.53022300  1
  O  O31  1  0.00000000  0.82836000  0.04494000  1
  O  O32  1  0.50000000  0.82836000  0.15874000  1
  O  O33  1  0.99980400  0.84474300  0.27065200  1
  O  O34  1  0.49258400  0.84332200  0.38540700  1
  O  O35  1  0.50000000  0.82836000  0.06885000  1
  O  O36  1  0.00000000  0.82836000  0.18264000  1
  O  O37  1  0.49943200  0.83100600  0.29632200  1
  O  O38  1  0.00481000  0.84343400  0.41143000  1
  O  O39  1  0.30253000  0.32836000  0.00000000  1
  O  O40  1  0.80253000  0.32836000  0.11379000  1
  O  O41  1  0.30253000  0.32836000  0.22759000  1
  O  O42  1  0.79718800  0.31946100  0.33799600  1
  O  O43  1  0.30998300  0.30791100  0.45783300  1
  O  O44  1  0.69747000  0.32836000  0.00000000  1
  O  O45  1  0.19747000  0.32836000  0.11379000  1
  O  O46  1  0.69747000  0.32836000  0.22759000  1
  O  O47  1  0.19943100  0.32007900  0.33741800  1
  O  O48  1  0.69091200  0.30800400  0.45579700  1
  O  O49  1  0.30253000  0.67164000  0.00000000  1
  O  O50  1  0.80253000  0.67164000  0.11379000  1
  O  O51  1  0.30253000  0.67164000  0.22759000  1
  O  O52  1  0.79405500  0.67726000  0.33852300  1
  O  O53  1  0.29815300  0.66966800  0.44293700  1
  O  O54  1  0.69747000  0.67164000  0.00000000  1
  O  O55  1  0.19747000  0.67164000  0.11379000  1
  O  O56  1  0.69747000  0.67164000  0.22759000  1
  O  O57  1  0.20433900  0.67644900  0.33848900  1
  O  O58  1  0.70161700  0.67211300  0.43817000  1
  O  O59  1  0.00000000  0.17164000  0.04494000  1
  O  O60  1  0.50000000  0.17164000  0.15874000  1
  O  O61  1  0.99978400  0.15531300  0.27066400  1
  O  O62  1  0.49455300  0.15850200  0.38363700  1
  O  O63  1  0.50000000  0.17164000  0.06885000  1
  O  O64  1  1.00000000  0.17164000  0.18264000  1
  O  O65  1  0.49911800  0.17209300  0.29627300  1
  O  O66  1  0.00265000  0.16990600  0.40865500  1
  O  O67  1  0.00000000  0.50000000  0.04332000  1
  O  O68  1  0.50000000  0.50000000  0.15711000  1
  O  O69  1  0.99950800  0.50002000  0.27169600  1
  O  O70  1  0.49503400  0.49300500  0.38644700  1
  O  O71  1  0.50000000  0.50000000  0.07048000  1
  O  O72  1  1.00000000  0.50000000  0.18427000  1
  O  O73  1  0.49993400  0.49399700  0.29977800  1
  O  O74  1  0.00176800  0.49682600  0.42963100  1
  O  O75  1  0.30966000  0.00000000  0.00000000  1
  O  O76  1  0.80966000  1.00000000  0.11379000  1
  O  O77  1  0.30966000  0.00000000  0.22759000  1
  O  O78  1  0.80043700  0.00095300  0.34120200  1
  O  O79  1  0.31720200  0.00920600  0.45644500  1
  O  O80  1  0.69034000  1.00000000  0.00000000  1
  O  O81  1  0.19034000  0.00000000  0.11379000  1
  O  O82  1  0.69034000  1.00000000  0.22759000  1
  O  O83  1  0.19565300  0.00070600  0.34037400  1
  O  O84  1  0.68530300  0.00942900  0.45472600  1
