# generated using pymatgen
data_MgTiMnVZnCrFeCoCuNiSb20ClO54
_symmetry_space_group_name_H-M   'P 1'
_cell_length_a   6.67861500
_cell_length_b   9.55214700
_cell_length_c   28.36432200
_cell_angle_alpha   90.05569000
_cell_angle_beta   89.76375600
_cell_angle_gamma   89.76414400
_symmetry_Int_Tables_number   1
_chemical_formula_structural   MgTiMnVZnCrFeCoCuNiSb20ClO54
_chemical_formula_sum
'Mg1 Ti1 Mn1 V1 Zn1 Cr1 Fe1 Co1 Cu1 Ni1 Sb20 Cl1 O54'
_cell_volume   1809.47350775
_cell_formula_units_Z   1
loop_
 _symmetry_equiv_pos_site_id
 _symmetry_equiv_pos_as_xyz
  1  'x, y, z'
loop_
 _atom_site_type_symbol
 _atom_site_label
 _atom_site_symmetry_multiplicity
 _atom_site_fract_x
 _atom_site_fract_y
 _atom_site_fract_z
 _atom_site_occupancy
  Mg  Mg0  1  0.50000000  0.33232000  0.11379000  1
  Ti  Ti1  1  0.00000000  0.83232000  0.11379000  1
  Mn  Mn2  1  0.50000000  0.66768000  0.11379000  1
  V  V3  1  0.01948600  0.66736800  0.46101100  1
  Zn  Zn4  1  0.46591800  0.50797800  0.45875000  1
  Cr  Cr5  1  0.00000000  0.50000000  0.11379000  1
  Fe  Fe6  1  0.99517200  0.49865800  0.34696000  1
  Co  Co7  1  0.00000000  0.00000000  0.00000000  1
  Cu  Cu8  1  0.00000000  0.16768000  0.11379000  1
  Ni  Ni9  1  0.50000000  0.83232000  0.00000000  1
  Sb  Sb10  1  0.50000000  0.00000000  0.11379000  1
  Sb  Sb11  1  0.00000000  1.00000000  0.22759000  1
  Sb  Sb12  1  0.49154900  0.97915900  0.36834400  1
  Sb  Sb13  1  0.00452400  0.99879400  0.46696400  1
  Sb  Sb14  1  0.50000000  0.50000000  0.00000000  1
  Sb  Sb15  1  0.50000000  0.50000000  0.22759000  1
  Sb  Sb16  1  0.00000000  0.66768000  0.00000000  1
  Sb  Sb17  1  0.00000000  0.66768000  0.22759000  1
  Sb  Sb18  1  0.49049200  0.66209000  0.35289800  1
  Sb  Sb19  1  0.50000000  0.16768000  0.00000000  1
  Sb  Sb20  1  0.50000000  0.16768000  0.22759000  1
  Sb  Sb21  1  0.99118200  0.17022500  0.34877400  1
  Sb  Sb22  1  0.50153500  0.19506400  0.47217100  1
  Sb  Sb23  1  0.50000000  0.83232000  0.22759000  1
  Sb  Sb24  1  0.98342300  0.82389400  0.34725600  1
  Sb  Sb25  1  0.52079900  0.83428900  0.48121100  1
  Sb  Sb26  1  1.00000000  0.33232000  0.00000000  1
  Sb  Sb27  1  0.00000000  0.33232000  0.22759000  1
  Sb  Sb28  1  0.49267200  0.32158500  0.34429400  1
  Sb  Sb29  1  0.97692400  0.34455200  0.47077000  1
  Cl  Cl30  1  0.54884900  0.47850300  0.53580400  1
  O  O31  1  0.00000000  0.82836000  0.04494000  1
  O  O32  1  0.50000000  0.82836000  0.15874000  1
  O  O33  1  0.99980400  0.84474300  0.27065200  1
  O  O34  1  0.50890800  0.69958400  0.42924300  1
  O  O35  1  0.50000000  0.82836000  0.06885000  1
  O  O36  1  0.00000000  0.82836000  0.18264000  1
  O  O37  1  0.49995500  0.83009100  0.29635600  1
  O  O38  1  0.03106900  0.82301000  0.42555500  1
  O  O39  1  0.30253000  0.32836000  1.00000000  1
  O  O40  1  0.80253000  0.32836000  0.11379000  1
  O  O41  1  0.30253000  0.32836000  0.22759000  1
  O  O42  1  0.80005700  0.33183500  0.34414100  1
  O  O43  1  0.28358800  0.32926200  0.45621900  1
  O  O44  1  0.69747000  0.32836000  1.00000000  1
  O  O45  1  0.19747000  0.32836000  0.11379000  1
  O  O46  1  0.69747000  0.32836000  0.22759000  1
  O  O47  1  0.18380700  0.32797800  0.34322000  1
  O  O48  1  0.69238800  0.33825700  0.44690600  1
  O  O49  1  0.30253000  0.67164000  1.00000000  1
  O  O50  1  0.80253000  0.67164000  0.11379000  1
  O  O51  1  0.30253000  0.67164000  0.22759000  1
  O  O52  1  0.79808400  0.64431600  0.34238500  1
  O  O53  1  0.23172000  0.65883700  0.49135900  1
  O  O54  1  0.69747000  0.67164000  1.00000000  1
  O  O55  1  0.19747000  0.67164000  0.11379000  1
  O  O56  1  0.69747000  0.67164000  0.22759000  1
  O  O57  1  0.18127300  0.65459700  0.34241400  1
  O  O58  1  0.83405700  0.70435800  0.49785900  1
  O  O59  1  0.00000000  0.17164000  0.04494000  1
  O  O60  1  0.50000000  0.17164000  0.15874000  1
  O  O61  1  0.99978400  0.15531300  0.27066400  1
  O  O62  1  0.48802100  0.17562500  0.39378200  1
  O  O63  1  0.50000000  0.17164000  0.06885000  1
  O  O64  1  0.00000000  0.17164000  0.18264000  1
  O  O65  1  0.49471800  0.16612300  0.29790500  1
  O  O66  1  0.99360400  0.16608400  0.42081400  1
  O  O67  1  0.00000000  0.50000000  0.04332000  1
  O  O68  1  0.50000000  0.50000000  0.15711000  1
  O  O69  1  0.99950800  0.50002000  0.27169600  1
  O  O70  1  0.47234300  0.47778400  0.38693800  1
  O  O71  1  0.50000000  0.50000000  0.07048000  1
  O  O72  1  0.00000000  0.50000000  0.18427000  1
  O  O73  1  0.49158800  0.49074100  0.29842500  1
  O  O74  1  0.99175900  0.51004100  0.42444000  1
  O  O75  1  0.30966000  1.00000000  1.00000000  1
  O  O76  1  0.80966000  0.00000000  0.11379000  1
  O  O77  1  0.30966000  1.00000000  0.22759000  1
  O  O78  1  0.78359400  0.02680300  0.34279600  1
  O  O79  1  0.31641400  0.98863800  0.45181900  1
  O  O80  1  0.69034000  0.00000000  1.00000000  1
  O  O81  1  0.19034000  1.00000000  0.11379000  1
  O  O82  1  0.69034000  0.00000000  0.22759000  1
  O  O83  1  0.19282100  0.01773400  0.34500600  1
  O  O84  1  0.70016200  0.97520000  0.44483100  1
