# generated using pymatgen
data_MgTiMnVZnCrFeCoCuNiSb20ClO54
_symmetry_space_group_name_H-M   'P 1'
_cell_length_a   6.67503200
_cell_length_b   9.48774300
_cell_length_c   29.36421700
_cell_angle_alpha   89.96046600
_cell_angle_beta   89.63814500
_cell_angle_gamma   89.91021900
_symmetry_Int_Tables_number   1
_chemical_formula_structural   MgTiMnVZnCrFeCoCuNiSb20ClO54
_chemical_formula_sum
'Mg1 Ti1 Mn1 V1 Zn1 Cr1 Fe1 Co1 Cu1 Ni1 Sb20 Cl1 O54'
_cell_volume   1859.62507773
_cell_formula_units_Z   1
loop_
 _symmetry_equiv_pos_site_id
 _symmetry_equiv_pos_as_xyz
  1  'x, y, z'
loop_
 _atom_site_type_symbol
 _atom_site_label
 _atom_site_symmetry_multiplicity
 _atom_site_fract_x
 _atom_site_fract_y
 _atom_site_fract_z
 _atom_site_occupancy
  Mg  Mg0  1  1.00000000  0.33232000  1.00000000  1
  Ti  Ti1  1  0.49476000  0.98656400  0.66026300  1
  Mn  Mn2  1  0.50000000  0.16768000  0.77241000  1
  V  V3  1  0.50000000  0.83232000  0.77241000  1
  Zn  Zn4  1  0.50552000  0.50279000  0.55236200  1
  Cr  Cr5  1  0.50553800  0.66818900  0.66271200  1
  Fe  Fe6  1  1.00000000  0.50000000  0.88621000  1
  Co  Co7  1  1.00000000  0.33232000  0.77241000  1
  Cu  Cu8  1  0.50000000  0.16768000  1.00000000  1
  Ni  Ni9  1  0.00786800  0.82664600  0.66354400  1
  Sb  Sb10  1  0.00000000  0.00000000  0.00000000  1
  Sb  Sb11  1  0.50000000  1.00000000  0.88621000  1
  Sb  Sb12  1  1.00000000  1.00000000  0.77241000  1
  Sb  Sb13  1  0.96968600  0.99011900  0.57874400  1
  Sb  Sb14  1  0.50000000  0.50000000  1.00000000  1
  Sb  Sb15  1  0.50000000  0.50000000  0.77241000  1
  Sb  Sb16  1  0.00288700  0.51838800  0.66069700  1
  Sb  Sb17  1  0.00000000  0.66768000  0.00000000  1
  Sb  Sb18  1  0.50000000  0.66768000  0.88621000  1
  Sb  Sb19  1  1.00000000  0.66768000  0.77241000  1
  Sb  Sb20  1  0.99949900  0.66067800  0.54253000  1
  Sb  Sb21  1  1.00000000  0.16768000  0.88621000  1
  Sb  Sb22  1  0.01104000  0.16870200  0.66406300  1
  Sb  Sb23  1  0.49404600  0.19367900  0.54212800  1
  Sb  Sb24  1  0.50000000  0.83232000  1.00000000  1
  Sb  Sb25  1  1.00000000  0.83232000  0.88621000  1
  Sb  Sb26  1  0.48407300  0.82698300  0.54502700  1
  Sb  Sb27  1  0.50000000  0.33232000  0.88621000  1
  Sb  Sb28  1  0.50706700  0.33006800  0.65834900  1
  Sb  Sb29  1  0.01527700  0.33605400  0.54370500  1
  Cl  Cl30  1  0.44162200  0.41469900  0.47630300  1
  O  O31  1  1.00000000  0.82836000  0.95506000  1
  O  O32  1  0.50000000  0.82836000  0.84126000  1
  O  O33  1  0.00019600  0.84474300  0.72934800  1
  O  O34  1  0.50602700  0.84236900  0.61763800  1
  O  O35  1  0.50000000  0.82836000  0.93115000  1
  O  O36  1  1.00000000  0.82836000  0.81736000  1
  O  O37  1  0.50374000  0.84127700  0.70682500  1
  O  O38  1  0.99141500  0.79484300  0.59677400  1
  O  O39  1  0.69747000  0.32836000  1.00000000  1
  O  O40  1  0.19747000  0.32836000  0.88621000  1
  O  O41  1  0.69747000  0.32836000  0.77241000  1
  O  O42  1  0.19639400  0.33705100  0.66435300  1
  O  O43  1  0.70703500  0.33509000  0.55764400  1
  O  O44  1  0.30253000  0.32836000  1.00000000  1
  O  O45  1  0.80253000  0.32836000  0.88621000  1
  O  O46  1  0.30253000  0.32836000  0.77241000  1
  O  O47  1  0.81753800  0.33593700  0.66460300  1
  O  O48  1  0.30203800  0.33669000  0.56952800  1
  O  O49  1  0.69747000  0.67164000  0.00000000  1
  O  O50  1  0.19747000  0.67164000  0.88621000  1
  O  O51  1  0.69747000  0.67164000  0.77241000  1
  O  O52  1  0.20666900  0.66825800  0.66438200  1
  O  O53  1  0.69109300  0.67156300  0.54829300  1
  O  O54  1  0.30253000  0.67164000  1.00000000  1
  O  O55  1  0.80253000  0.67164000  0.88621000  1
  O  O56  1  0.30253000  0.67164000  0.77241000  1
  O  O57  1  0.80289900  0.67058800  0.66575700  1
  O  O58  1  0.30150900  0.66286600  0.55642100  1
  O  O59  1  1.00000000  0.17164000  0.95506000  1
  O  O60  1  0.50000000  0.17164000  0.84126000  1
  O  O61  1  0.00021600  0.15531300  0.72933600  1
  O  O62  1  0.51372900  0.15815700  0.61738900  1
  O  O63  1  0.50000000  0.17164000  0.93115000  1
  O  O64  1  1.00000000  0.17164000  0.81736000  1
  O  O65  1  0.50691700  0.16481900  0.70274000  1
  O  O66  1  0.99463900  0.19083500  0.59688000  1
  O  O67  1  1.00000000  0.50000000  0.95668000  1
  O  O68  1  0.50000000  0.50000000  0.84289000  1
  O  O69  1  0.00049200  0.50002000  0.72830400  1
  O  O70  1  0.51676000  0.50746000  0.62325200  1
  O  O71  1  0.50000000  0.50000000  0.92952000  1
  O  O72  1  1.00000000  0.50000000  0.81573000  1
  O  O73  1  0.50128600  0.50074900  0.70463400  1
  O  O74  1  0.99107500  0.50069900  0.59090400  1
  O  O75  1  0.69034000  0.00000000  1.00000000  1
  O  O76  1  0.19034000  1.00000000  0.88621000  1
  O  O77  1  0.69034000  0.00000000  0.77241000  1
  O  O78  1  0.20246900  0.00576300  0.65491500  1
  O  O79  1  0.74003600  0.00507100  0.54216200  1
  O  O80  1  0.30966000  1.00000000  1.00000000  1
  O  O81  1  0.80966000  0.00000000  0.88621000  1
  O  O82  1  0.30966000  1.00000000  0.77241000  1
  O  O83  1  0.82603700  0.00241400  0.64849500  1
  O  O84  1  0.21355500  0.99829000  0.54513100  1
