# generated using pymatgen
data_MgTiMnVZnCrFeCoCuNiSb20ClO54
_symmetry_space_group_name_H-M   'P 1'
_cell_length_a   6.72623100
_cell_length_b   9.51109700
_cell_length_c   29.40892400
_cell_angle_alpha   90.25078000
_cell_angle_beta   89.95108400
_cell_angle_gamma   89.92045400
_symmetry_Int_Tables_number   1
_chemical_formula_structural   MgTiMnVZnCrFeCoCuNiSb20ClO54
_chemical_formula_sum
'Mg1 Ti1 Mn1 V1 Zn1 Cr1 Fe1 Co1 Cu1 Ni1 Sb20 Cl1 O54'
_cell_volume   1881.38113563
_cell_formula_units_Z   1
loop_
 _symmetry_equiv_pos_site_id
 _symmetry_equiv_pos_as_xyz
  1  'x, y, z'
loop_
 _atom_site_type_symbol
 _atom_site_label
 _atom_site_symmetry_multiplicity
 _atom_site_fract_x
 _atom_site_fract_y
 _atom_site_fract_z
 _atom_site_occupancy
  Mg  Mg0  1  0.50000000  0.50000000  0.00000000  1
  Ti  Ti1  1  0.50000000  0.16768000  0.00000000  1
  Mn  Mn2  1  0.50000000  0.83232000  0.77241000  1
  V  V3  1  0.00040500  0.84823000  0.65629700  1
  Zn  Zn4  1  0.50429800  0.50587300  0.55451800  1
  Cr  Cr5  1  0.99266400  0.33917000  0.54997100  1
  Fe  Fe6  1  0.50000000  1.00000000  0.88621000  1
  Co  Co7  1  0.50128000  0.33741000  0.66455300  1
  Cu  Cu8  1  0.50000000  0.66768000  0.88621000  1
  Ni  Ni9  1  0.50147500  0.99622900  0.66361700  1
  Sb  Sb10  1  0.00000000  0.00000000  0.00000000  1
  Sb  Sb11  1  1.00000000  1.00000000  0.77241000  1
  Sb  Sb12  1  0.99749000  0.00193600  0.54266100  1
  Sb  Sb13  1  1.00000000  0.50000000  0.88621000  1
  Sb  Sb14  1  0.50000000  0.50000000  0.77241000  1
  Sb  Sb15  1  0.00048800  0.50439300  0.65785400  1
  Sb  Sb16  1  1.00000000  0.66768000  0.00000000  1
  Sb  Sb17  1  1.00000000  0.66768000  0.77241000  1
  Sb  Sb18  1  0.50036900  0.66905800  0.65830400  1
  Sb  Sb19  1  0.00291600  0.66701100  0.54420900  1
  Sb  Sb20  1  1.00000000  0.16768000  0.88621000  1
  Sb  Sb21  1  0.50000000  0.16768000  0.77241000  1
  Sb  Sb22  1  0.00230400  0.16820700  0.65695300  1
  Sb  Sb23  1  0.49528800  0.17317400  0.55921300  1
  Sb  Sb24  1  0.50000000  0.83232000  0.00000000  1
  Sb  Sb25  1  0.00000000  0.83232000  0.88621000  1
  Sb  Sb26  1  0.49898200  0.81582600  0.54762300  1
  Sb  Sb27  1  1.00000000  0.33232000  0.00000000  1
  Sb  Sb28  1  0.50000000  0.33232000  0.88621000  1
  Sb  Sb29  1  1.00000000  0.33232000  0.77241000  1
  Cl  Cl30  1  0.48660300  0.50879500  0.47990200  1
  O  O31  1  1.00000000  0.82836000  0.95506000  1
  O  O32  1  0.50000000  0.82836000  0.84126000  1
  O  O33  1  0.00019600  0.84474300  0.72934800  1
  O  O34  1  0.50307500  0.83559700  0.61776200  1
  O  O35  1  0.50000000  0.82836000  0.93115000  1
  O  O36  1  0.00000000  0.82836000  0.81736000  1
  O  O37  1  0.50022700  0.82408400  0.70541800  1
  O  O38  1  0.99718700  0.83975400  0.59074700  1
  O  O39  1  0.69747000  0.32836000  0.00000000  1
  O  O40  1  0.19747000  0.32836000  0.88621000  1
  O  O41  1  0.69747000  0.32836000  0.77241000  1
  O  O42  1  0.20208400  0.34258400  0.66185100  1
  O  O43  1  0.78049600  0.33353000  0.52400200  1
  O  O44  1  0.30253000  0.32836000  0.00000000  1
  O  O45  1  0.80253000  0.32836000  0.88621000  1
  O  O46  1  0.30253000  0.32836000  0.77241000  1
  O  O47  1  0.80187300  0.34233400  0.66202000  1
  O  O48  1  0.19173200  0.32436400  0.51975600  1
  O  O49  1  0.69747000  0.67164000  0.00000000  1
  O  O50  1  0.19747000  0.67164000  0.88621000  1
  O  O51  1  0.69747000  0.67164000  0.77241000  1
  O  O52  1  0.18562800  0.67223400  0.66133500  1
  O  O53  1  0.70889000  0.66271400  0.56357400  1
  O  O54  1  0.30253000  0.67164000  0.00000000  1
  O  O55  1  0.80253000  0.67164000  0.88621000  1
  O  O56  1  0.30253000  0.67164000  0.77241000  1
  O  O57  1  0.81509600  0.67205400  0.66129100  1
  O  O58  1  0.29351700  0.66267200  0.56571900  1
  O  O59  1  1.00000000  0.17164000  0.95506000  1
  O  O60  1  0.50000000  0.17164000  0.84126000  1
  O  O61  1  0.00021600  0.15531300  0.72933600  1
  O  O62  1  0.50251000  0.17708800  0.62580800  1
  O  O63  1  0.50000000  0.17164000  0.93115000  1
  O  O64  1  1.00000000  0.17164000  0.81736000  1
  O  O65  1  0.50027500  0.17308900  0.70571500  1
  O  O66  1  0.99340400  0.18000300  0.58352100  1
  O  O67  1  1.00000000  0.50000000  0.95668000  1
  O  O68  1  0.50000000  0.50000000  0.84289000  1
  O  O69  1  0.00049200  0.50002000  0.72830400  1
  O  O70  1  0.50287200  0.48390700  0.62140800  1
  O  O71  1  0.50000000  0.50000000  0.92952000  1
  O  O72  1  1.00000000  0.50000000  0.81573000  1
  O  O73  1  0.50049800  0.49795500  0.70413700  1
  O  O74  1  0.00199100  0.49245800  0.58824000  1
  O  O75  1  0.69034000  0.00000000  0.00000000  1
  O  O76  1  0.19034000  1.00000000  0.88621000  1
  O  O77  1  0.69034000  1.00000000  0.77241000  1
  O  O78  1  0.18916100  0.97115400  0.65940400  1
  O  O79  1  0.69343100  0.01285300  0.55749500  1
  O  O80  1  0.30966000  0.00000000  0.00000000  1
  O  O81  1  0.80966000  1.00000000  0.88621000  1
  O  O82  1  0.30966000  1.00000000  0.77241000  1
  O  O83  1  0.81271500  0.97288500  0.65994100  1
  O  O84  1  0.29805900  0.01239600  0.55897700  1
