# generated using pymatgen
data_MgTiMnVZnCrFeCoCuNiSb20ClO54
_symmetry_space_group_name_H-M   'P 1'
_cell_length_a   6.70151200
_cell_length_b   9.63254300
_cell_length_c   29.27594900
_cell_angle_alpha   89.64742400
_cell_angle_beta   89.97460000
_cell_angle_gamma   89.95394600
_symmetry_Int_Tables_number   1
_chemical_formula_structural   MgTiMnVZnCrFeCoCuNiSb20ClO54
_chemical_formula_sum
'Mg1 Ti1 Mn1 V1 Zn1 Cr1 Fe1 Co1 Cu1 Ni1 Sb20 Cl1 O54'
_cell_volume   1889.80212559
_cell_formula_units_Z   1
loop_
 _symmetry_equiv_pos_site_id
 _symmetry_equiv_pos_as_xyz
  1  'x, y, z'
loop_
 _atom_site_type_symbol
 _atom_site_label
 _atom_site_symmetry_multiplicity
 _atom_site_fract_x
 _atom_site_fract_y
 _atom_site_fract_z
 _atom_site_occupancy
  Mg  Mg0  1  1.00000000  0.00000000  0.77241000  1
  Ti  Ti1  1  0.50000000  1.00000000  0.88621000  1
  Mn  Mn2  1  0.99601900  0.33938700  0.55689700  1
  V  V3  1  0.50000000  0.16768000  0.77241000  1
  Zn  Zn4  1  0.50146000  0.51223000  0.54805100  1
  Cr  Cr5  1  0.00000000  0.00000000  0.00000000  1
  Fe  Fe6  1  0.49925400  0.67867000  0.65872700  1
  Co  Co7  1  0.99966500  0.82242500  0.66776800  1
  Cu  Cu8  1  1.00000000  0.16768000  0.88621000  1
  Ni  Ni9  1  0.49926500  0.00412600  0.66008700  1
  Sb  Sb10  1  0.99702000  0.98367900  0.58246300  1
  Sb  Sb11  1  0.50000000  0.50000000  1.00000000  1
  Sb  Sb12  1  1.00000000  0.50000000  0.88621000  1
  Sb  Sb13  1  0.50000000  0.50000000  0.77241000  1
  Sb  Sb14  1  0.99847500  0.51663600  0.65689700  1
  Sb  Sb15  1  1.00000000  0.66768000  1.00000000  1
  Sb  Sb16  1  0.50000000  0.66768000  0.88621000  1
  Sb  Sb17  1  1.00000000  0.66768000  0.77241000  1
  Sb  Sb18  1  0.00275400  0.66683500  0.54072900  1
  Sb  Sb19  1  0.50000000  0.16768000  1.00000000  1
  Sb  Sb20  1  0.99908300  0.16447000  0.66383600  1
  Sb  Sb21  1  0.49587200  0.20390500  0.54294600  1
  Sb  Sb22  1  0.50000000  0.83232000  1.00000000  1
  Sb  Sb23  1  1.00000000  0.83232000  0.88621000  1
  Sb  Sb24  1  0.50000000  0.83232000  0.77241000  1
  Sb  Sb25  1  0.49973700  0.83680100  0.55272300  1
  Sb  Sb26  1  1.00000000  0.33232000  1.00000000  1
  Sb  Sb27  1  0.50000000  0.33232000  0.88621000  1
  Sb  Sb28  1  1.00000000  0.33232000  0.77241000  1
  Sb  Sb29  1  0.49906400  0.33727200  0.65925300  1
  Cl  Cl30  1  0.49356300  0.44499900  0.47227700  1
  O  O31  1  1.00000000  0.82836000  0.95506000  1
  O  O32  1  0.50000000  0.82836000  0.84126000  1
  O  O33  1  0.00019600  0.84474300  0.72934800  1
  O  O34  1  0.50516500  0.84157200  0.61963500  1
  O  O35  1  0.50000000  0.82836000  0.93115000  1
  O  O36  1  1.00000000  0.82836000  0.81736000  1
  O  O37  1  0.49926000  0.82937300  0.70470200  1
  O  O38  1  0.99279800  0.78916400  0.59811000  1
  O  O39  1  0.69747000  0.32836000  1.00000000  1
  O  O40  1  0.19747000  0.32836000  0.88621000  1
  O  O41  1  0.69747000  0.32836000  0.77241000  1
  O  O42  1  0.18608900  0.33878200  0.66351900  1
  O  O43  1  0.72179400  0.34169100  0.55139400  1
  O  O44  1  0.30253000  0.32836000  1.00000000  1
  O  O45  1  0.80253000  0.32836000  0.88621000  1
  O  O46  1  0.30253000  0.32836000  0.77241000  1
  O  O47  1  0.81102400  0.33805600  0.66359400  1
  O  O48  1  0.26831400  0.34230900  0.55043700  1
  O  O49  1  0.69747000  0.67164000  1.00000000  1
  O  O50  1  0.19747000  0.67164000  0.88621000  1
  O  O51  1  0.69747000  0.67164000  0.77241000  1
  O  O52  1  0.19779700  0.66283400  0.66598200  1
  O  O53  1  0.69156300  0.67841100  0.54813300  1
  O  O54  1  0.30253000  0.67164000  1.00000000  1
  O  O55  1  0.80253000  0.67164000  0.88621000  1
  O  O56  1  0.30253000  0.67164000  0.77241000  1
  O  O57  1  0.79971500  0.66263900  0.66659700  1
  O  O58  1  0.30848200  0.67600500  0.55285400  1
  O  O59  1  1.00000000  0.17164000  0.95506000  1
  O  O60  1  0.50000000  0.17164000  0.84126000  1
  O  O61  1  0.00021600  0.15531300  0.72933600  1
  O  O62  1  0.49460000  0.17941500  0.61562400  1
  O  O63  1  0.50000000  0.17164000  0.93115000  1
  O  O64  1  1.00000000  0.17164000  0.81736000  1
  O  O65  1  0.49955200  0.17725100  0.70676400  1
  O  O66  1  0.99934500  0.18588100  0.59547900  1
  O  O67  1  1.00000000  0.50000000  0.95668000  1
  O  O68  1  0.50000000  0.50000000  0.84289000  1
  O  O69  1  0.00049200  0.50002000  0.72830400  1
  O  O70  1  0.50160800  0.50222800  0.62002000  1
  O  O71  1  0.50000000  0.50000000  0.92952000  1
  O  O72  1  1.00000000  0.50000000  0.81573000  1
  O  O73  1  0.49908900  0.49669600  0.70529100  1
  O  O74  1  0.99375200  0.51199500  0.58856100  1
  O  O75  1  0.69034000  0.00000000  1.00000000  1
  O  O76  1  0.19034000  1.00000000  0.88621000  1
  O  O77  1  0.69034000  0.00000000  0.77241000  1
  O  O78  1  0.18442500  0.00412900  0.64908100  1
  O  O79  1  0.75081600  0.98366600  0.54602900  1
  O  O80  1  0.30966000  1.00000000  0.00000000  1
  O  O81  1  0.80966000  0.00000000  0.88621000  1
  O  O82  1  0.30966000  1.00000000  0.77241000  1
  O  O83  1  0.81189400  0.00725700  0.64926600  1
  O  O84  1  0.24414600  0.97983200  0.54607600  1
