# generated using pymatgen
data_MgTiMnVZnCrFeCoCuNiSb20ClO54
_symmetry_space_group_name_H-M   'P 1'
_cell_length_a   6.65355800
_cell_length_b   9.65476800
_cell_length_c   28.96102100
_cell_angle_alpha   89.92646200
_cell_angle_beta   89.98232900
_cell_angle_gamma   89.99561800
_symmetry_Int_Tables_number   1
_chemical_formula_structural   MgTiMnVZnCrFeCoCuNiSb20ClO54
_chemical_formula_sum
'Mg1 Ti1 Mn1 V1 Zn1 Cr1 Fe1 Co1 Cu1 Ni1 Sb20 Cl1 O54'
_cell_volume   1860.41262607
_cell_formula_units_Z   1
loop_
 _symmetry_equiv_pos_site_id
 _symmetry_equiv_pos_as_xyz
  1  'x, y, z'
loop_
 _atom_site_type_symbol
 _atom_site_label
 _atom_site_symmetry_multiplicity
 _atom_site_fract_x
 _atom_site_fract_y
 _atom_site_fract_z
 _atom_site_occupancy
  Mg  Mg0  1  0.00288600  0.67062800  0.56478600  1
  Ti  Ti1  1  0.50086100  0.34164800  0.66351100  1
  Mn  Mn2  1  0.50000000  0.66768000  0.88621000  1
  V  V3  1  1.00000000  0.83232000  0.88621000  1
  Zn  Zn4  1  0.50203400  0.47151400  0.53899700  1
  Cr  Cr5  1  0.50000000  0.16768000  0.77241000  1
  Fe  Fe6  1  0.00086500  0.17211600  0.65594600  1
  Co  Co7  1  1.00000000  0.66768000  1.00000000  1
  Cu  Cu8  1  1.00000000  0.50000000  0.88621000  1
  Ni  Ni9  1  0.00147100  0.01729100  0.55155000  1
  Sb  Sb10  1  0.00000000  0.00000000  0.00000000  1
  Sb  Sb11  1  0.50000000  1.00000000  0.88621000  1
  Sb  Sb12  1  1.00000000  1.00000000  0.77241000  1
  Sb  Sb13  1  0.50005400  0.00253900  0.66348300  1
  Sb  Sb14  1  0.50000000  0.50000000  1.00000000  1
  Sb  Sb15  1  0.50000000  0.50000000  0.77241000  1
  Sb  Sb16  1  0.00080400  0.48766800  0.65642300  1
  Sb  Sb17  1  0.00000000  0.33232000  1.00000000  1
  Sb  Sb18  1  0.50000000  0.33232000  0.88621000  1
  Sb  Sb19  1  1.00000000  0.33232000  0.77241000  1
  Sb  Sb20  1  0.00135800  0.32346300  0.53965600  1
  Sb  Sb21  1  0.50000000  0.83232000  1.00000000  1
  Sb  Sb22  1  0.50000000  0.83232000  0.77241000  1
  Sb  Sb23  1  0.00105200  0.84299100  0.65523800  1
  Sb  Sb24  1  0.50318100  0.81280000  0.52725500  1
  Sb  Sb25  1  0.50000000  0.16768000  1.00000000  1
  Sb  Sb26  1  1.00000000  0.16768000  0.88621000  1
  Sb  Sb27  1  0.50015800  0.14993700  0.55189700  1
  Sb  Sb28  1  1.00000000  0.66768000  0.77241000  1
  Sb  Sb29  1  0.50181900  0.66438400  0.62275400  1
  Cl  Cl30  1  0.51943200  0.56635400  0.46807800  1
  O  O31  1  1.00000000  0.17164000  0.95506000  1
  O  O32  1  0.50000000  0.17164000  0.84126000  1
  O  O33  1  0.99980400  0.15525700  0.72934800  1
  O  O34  1  0.49945500  0.16534600  0.61985500  1
  O  O35  1  0.50000000  0.17164000  0.93115000  1
  O  O36  1  1.00000000  0.17164000  0.81736000  1
  O  O37  1  0.50067600  0.16765100  0.70563200  1
  O  O38  1  0.00575700  0.17912700  0.58999700  1
  O  O39  1  0.30253000  0.67164000  1.00000000  1
  O  O40  1  0.80253000  0.67164000  0.88621000  1
  O  O41  1  0.30253000  0.67164000  0.77241000  1
  O  O42  1  0.81093500  0.66529300  0.65557600  1
  O  O43  1  0.31273700  0.67203500  0.56106200  1
  O  O44  1  0.69747000  0.67164000  1.00000000  1
  O  O45  1  0.19747000  0.67164000  0.88621000  1
  O  O46  1  0.69747000  0.67164000  0.77241000  1
  O  O47  1  0.19197200  0.66450500  0.65472900  1
  O  O48  1  0.69273000  0.67488200  0.56206800  1
  O  O49  1  0.30253000  0.32836000  1.00000000  1
  O  O50  1  0.80253000  0.32836000  0.88621000  1
  O  O51  1  0.30253000  0.32836000  0.77241000  1
  O  O52  1  0.80359100  0.33329400  0.66362800  1
  O  O53  1  0.31431500  0.30331900  0.53783700  1
  O  O54  1  0.69747000  0.32836000  1.00000000  1
  O  O55  1  0.19747000  0.32836000  0.88621000  1
  O  O56  1  0.69747000  0.32836000  0.77241000  1
  O  O57  1  0.19812100  0.33384600  0.66411000  1
  O  O58  1  0.69001000  0.30199500  0.53955400  1
  O  O59  1  1.00000000  0.82836000  0.95506000  1
  O  O60  1  0.50000000  0.82836000  0.84126000  1
  O  O61  1  0.99978400  0.84468700  0.72933600  1
  O  O62  1  0.49738200  0.87401600  0.60981800  1
  O  O63  1  0.50000000  0.82836000  0.93115000  1
  O  O64  1  1.00000000  0.82836000  0.81736000  1
  O  O65  1  0.50021400  0.83568900  0.70404300  1
  O  O66  1  0.00337900  0.85613800  0.58863500  1
  O  O67  1  1.00000000  0.50000000  0.95668000  1
  O  O68  1  0.50000000  0.50000000  0.84289000  1
  O  O69  1  0.99950800  0.49998000  0.72830400  1
  O  O70  1  0.50082100  0.45419700  0.61149400  1
  O  O71  1  0.50000000  0.50000000  0.92952000  1
  O  O72  1  1.00000000  0.50000000  0.81573000  1
  O  O73  1  0.50196900  0.48966300  0.70385200  1
  O  O74  1  0.00065800  0.47895800  0.58715400  1
  O  O75  1  0.30966000  0.00000000  1.00000000  1
  O  O76  1  0.80966000  1.00000000  0.88621000  1
  O  O77  1  0.30966000  1.00000000  0.77241000  1
  O  O78  1  0.80491600  0.00337800  0.66207400  1
  O  O79  1  0.29166600  0.00934800  0.53680700  1
  O  O80  1  0.69034000  0.00000000  0.00000000  1
  O  O81  1  0.19034000  1.00000000  0.88621000  1
  O  O82  1  0.69034000  1.00000000  0.77241000  1
  O  O83  1  0.19522500  0.00365300  0.66269300  1
  O  O84  1  0.70946600  0.00851400  0.53778500  1
