# generated using pymatgen
data_MgTiMnVZnCrFeCoCuNiSb20ClO54
_symmetry_space_group_name_H-M   'P 1'
_cell_length_a   6.67263100
_cell_length_b   9.63677000
_cell_length_c   28.79794100
_cell_angle_alpha   89.85715500
_cell_angle_beta   89.30423700
_cell_angle_gamma   89.70471700
_symmetry_Int_Tables_number   1
_chemical_formula_structural   MgTiMnVZnCrFeCoCuNiSb20ClO54
_chemical_formula_sum
'Mg1 Ti1 Mn1 V1 Zn1 Cr1 Fe1 Co1 Cu1 Ni1 Sb20 Cl1 O54'
_cell_volume   1851.61618445
_cell_formula_units_Z   1
loop_
 _symmetry_equiv_pos_site_id
 _symmetry_equiv_pos_as_xyz
  1  'x, y, z'
loop_
 _atom_site_type_symbol
 _atom_site_label
 _atom_site_symmetry_multiplicity
 _atom_site_fract_x
 _atom_site_fract_y
 _atom_site_fract_z
 _atom_site_occupancy
  Mg  Mg0  1  0.00000000  0.66768000  1.00000000  1
  Ti  Ti1  1  0.02963000  0.33127900  0.43720300  1
  Mn  Mn2  1  1.00000000  0.66768000  0.22759000  1
  V  V3  1  0.49279600  0.98217100  0.33988400  1
  Zn  Zn4  1  0.59812500  0.47361300  0.46528900  1
  Cr  Cr5  1  1.00000000  0.16768000  0.11379000  1
  Fe  Fe6  1  0.50000000  0.83232000  0.22759000  1
  Co  Co7  1  0.00000000  0.00000000  0.00000000  1
  Cu  Cu8  1  1.00000000  0.00000000  0.22759000  1
  Ni  Ni9  1  0.50000000  0.83232000  1.00000000  1
  Sb  Sb10  1  0.50000000  0.00000000  0.11379000  1
  Sb  Sb11  1  0.00354000  0.01579800  0.46357800  1
  Sb  Sb12  1  0.50000000  0.50000000  1.00000000  1
  Sb  Sb13  1  0.00000000  0.50000000  0.11379000  1
  Sb  Sb14  1  0.50000000  0.50000000  0.22759000  1
  Sb  Sb15  1  0.98541400  0.52219600  0.34268000  1
  Sb  Sb16  1  1.00000000  0.33232000  1.00000000  1
  Sb  Sb17  1  0.50000000  0.33232000  0.11379000  1
  Sb  Sb18  1  1.00000000  0.33232000  0.22759000  1
  Sb  Sb19  1  0.48728700  0.31656300  0.34695400  1
  Sb  Sb20  1  1.00000000  0.83232000  0.11379000  1
  Sb  Sb21  1  0.99610500  0.84361500  0.33806500  1
  Sb  Sb22  1  0.50492200  0.80650000  0.48453800  1
  Sb  Sb23  1  0.50000000  0.16768000  1.00000000  1
  Sb  Sb24  1  0.50000000  0.16768000  0.22759000  1
  Sb  Sb25  1  0.98540000  0.15955800  0.33946800  1
  Sb  Sb26  1  0.50026500  0.14941600  0.45833000  1
  Sb  Sb27  1  0.50000000  0.66768000  0.11379000  1
  Sb  Sb28  1  0.48279400  0.66088700  0.37610700  1
  Sb  Sb29  1  0.01494100  0.68919700  0.45931100  1
  Cl  Cl30  1  0.41012500  0.50554100  0.52758100  1
  O  O31  1  1.00000000  0.17164000  0.04494000  1
  O  O32  1  0.50000000  0.17164000  0.15874000  1
  O  O33  1  0.00019600  0.15525700  0.27065200  1
  O  O34  1  0.48823100  0.14708400  0.38728100  1
  O  O35  1  0.50000000  0.17164000  0.06885000  1
  O  O36  1  1.00000000  0.17164000  0.18264000  1
  O  O37  1  0.48476300  0.16214100  0.29952800  1
  O  O38  1  0.94720800  0.14888100  0.41007600  1
  O  O39  1  0.69747000  0.67164000  1.00000000  1
  O  O40  1  0.19747000  0.67164000  0.11379000  1
  O  O41  1  0.69747000  0.67164000  0.22759000  1
  O  O42  1  0.19031300  0.68738100  0.34287100  1
  O  O43  1  0.69917000  0.66748400  0.44563900  1
  O  O44  1  0.30253000  0.67164000  1.00000000  1
  O  O45  1  0.80253000  0.67164000  0.11379000  1
  O  O46  1  0.30253000  0.67164000  0.22759000  1
  O  O47  1  0.79850500  0.69419000  0.34361400  1
  O  O48  1  0.32206000  0.70155000  0.43992500  1
  O  O49  1  0.69747000  0.32836000  1.00000000  1
  O  O50  1  0.19747000  0.32836000  0.11379000  1
  O  O51  1  0.69747000  0.32836000  0.22759000  1
  O  O52  1  0.18056600  0.30650200  0.35747900  1
  O  O53  1  0.82481500  0.34960900  0.47433200  1
  O  O54  1  0.30253000  0.32836000  1.00000000  1
  O  O55  1  0.80253000  0.32836000  0.11379000  1
  O  O56  1  0.30253000  0.32836000  0.22759000  1
  O  O57  1  0.78776400  0.31083500  0.34554600  1
  O  O58  1  0.21127600  0.24291600  0.47044000  1
  O  O59  1  1.00000000  0.82836000  0.04494000  1
  O  O60  1  0.50000000  0.82836000  0.15874000  1
  O  O61  1  0.00021600  0.84468700  0.27066400  1
  O  O62  1  0.50547700  0.88050800  0.38724100  1
  O  O63  1  0.50000000  0.82836000  0.06885000  1
  O  O64  1  1.00000000  0.82836000  0.18264000  1
  O  O65  1  0.48850800  0.86047400  0.29906800  1
  O  O66  1  0.00048900  0.85481900  0.41241000  1
  O  O67  1  0.00000000  0.50000000  0.04332000  1
  O  O68  1  0.50000000  0.50000000  0.15711000  1
  O  O69  1  0.00049200  0.49998000  0.27169600  1
  O  O70  1  0.48926400  0.43894500  0.40172900  1
  O  O71  1  0.50000000  0.50000000  0.07048000  1
  O  O72  1  1.00000000  0.50000000  0.18427000  1
  O  O73  1  0.48106800  0.47088900  0.30235200  1
  O  O74  1  0.04853200  0.52370800  0.42018700  1
  O  O75  1  0.69034000  1.00000000  1.00000000  1
  O  O76  1  0.19034000  0.00000000  0.11379000  1
  O  O77  1  0.69034000  1.00000000  0.22759000  1
  O  O78  1  0.19021000  0.00385300  0.34246800  1
  O  O79  1  0.69070300  0.96715900  0.46530800  1
  O  O80  1  0.30966000  0.00000000  0.00000000  1
  O  O81  1  0.80966000  1.00000000  0.11379000  1
  O  O82  1  0.30966000  0.00000000  0.22759000  1
  O  O83  1  0.79215400  0.00041700  0.33891900  1
  O  O84  1  0.32144900  0.98112900  0.46367700  1
