# generated using pymatgen
data_MgTiMnVZnCrFeCoCuNiSb20ClO54
_symmetry_space_group_name_H-M   'P 1'
_cell_length_a   6.66760800
_cell_length_b   9.58943300
_cell_length_c   29.35522800
_cell_angle_alpha   89.98937500
_cell_angle_beta   89.87237500
_cell_angle_gamma   89.94677800
_symmetry_Int_Tables_number   1
_chemical_formula_structural   MgTiMnVZnCrFeCoCuNiSb20ClO54
_chemical_formula_sum
'Mg1 Ti1 Mn1 V1 Zn1 Cr1 Fe1 Co1 Cu1 Ni1 Sb20 Cl1 O54'
_cell_volume   1876.92610171
_cell_formula_units_Z   1
loop_
 _symmetry_equiv_pos_site_id
 _symmetry_equiv_pos_as_xyz
  1  'x, y, z'
loop_
 _atom_site_type_symbol
 _atom_site_label
 _atom_site_symmetry_multiplicity
 _atom_site_fract_x
 _atom_site_fract_y
 _atom_site_fract_z
 _atom_site_occupancy
  Mg  Mg0  1  0.99921500  0.33224200  0.55588300  1
  Ti  Ti1  1  0.99769200  0.00037600  0.55412700  1
  Mn  Mn2  1  0.00000000  0.83232000  0.88621000  1
  V  V3  1  0.50212500  0.98906300  0.65845700  1
  Zn  Zn4  1  0.49706200  0.50425400  0.55018400  1
  Cr  Cr5  1  0.50123800  0.66824800  0.65971400  1
  Fe  Fe6  1  0.00000000  0.33232000  1.00000000  1
  Co  Co7  1  0.00000000  0.16768000  0.88621000  1
  Cu  Cu8  1  0.50000000  0.50000000  0.00000000  1
  Ni  Ni9  1  0.00000000  0.33232000  0.77241000  1
  Sb  Sb10  1  0.00000000  0.00000000  0.00000000  1
  Sb  Sb11  1  0.50000000  1.00000000  0.88621000  1
  Sb  Sb12  1  0.00000000  0.00000000  0.77241000  1
  Sb  Sb13  1  0.00000000  0.50000000  0.88621000  1
  Sb  Sb14  1  0.50000000  0.50000000  0.77241000  1
  Sb  Sb15  1  0.00026100  0.50571600  0.65994600  1
  Sb  Sb16  1  0.00000000  0.66768000  1.00000000  1
  Sb  Sb17  1  0.50000000  0.66768000  0.88621000  1
  Sb  Sb18  1  0.00000000  0.66768000  0.77241000  1
  Sb  Sb19  1  0.00127200  0.65813400  0.54346200  1
  Sb  Sb20  1  0.50000000  0.16768000  0.00000000  1
  Sb  Sb21  1  0.50000000  0.16768000  0.77241000  1
  Sb  Sb22  1  0.00350800  0.16200600  0.66048800  1
  Sb  Sb23  1  0.50146500  0.18970200  0.53982900  1
  Sb  Sb24  1  0.50000000  0.83232000  0.00000000  1
  Sb  Sb25  1  0.50000000  0.83232000  0.77241000  1
  Sb  Sb26  1  0.99889100  0.83084200  0.65681600  1
  Sb  Sb27  1  0.49091200  0.81668100  0.53795600  1
  Sb  Sb28  1  0.50000000  0.33232000  0.88621000  1
  Sb  Sb29  1  0.50223700  0.33260800  0.65787400  1
  Cl  Cl30  1  0.46172200  0.66206200  0.46885500  1
  O  O31  1  0.00000000  0.82836000  0.95506000  1
  O  O32  1  0.50000000  0.82836000  0.84126000  1
  O  O33  1  0.00019600  0.84474300  0.72934800  1
  O  O34  1  0.50770800  0.84223400  0.62229400  1
  O  O35  1  0.50000000  0.82836000  0.93115000  1
  O  O36  1  0.00000000  0.82836000  0.81736000  1
  O  O37  1  0.50092500  0.83325200  0.70453000  1
  O  O38  1  0.97822900  0.82881500  0.58911000  1
  O  O39  1  0.69747000  0.32836000  0.00000000  1
  O  O40  1  0.19747000  0.32836000  0.88621000  1
  O  O41  1  0.69747000  0.32836000  0.77241000  1
  O  O42  1  0.19158900  0.33410400  0.66162100  1
  O  O43  1  0.70628900  0.33878800  0.54138300  1
  O  O44  1  0.30253000  0.32836000  0.00000000  1
  O  O45  1  0.80253000  0.32836000  0.88621000  1
  O  O46  1  0.30253000  0.32836000  0.77241000  1
  O  O47  1  0.81299400  0.33215600  0.66218300  1
  O  O48  1  0.29397600  0.34481900  0.54199900  1
  O  O49  1  0.69747000  0.67164000  0.00000000  1
  O  O50  1  0.19747000  0.67164000  0.88621000  1
  O  O51  1  0.69747000  0.67164000  0.77241000  1
  O  O52  1  0.19972200  0.66784900  0.66360400  1
  O  O53  1  0.69615900  0.66409100  0.55614400  1
  O  O54  1  0.30253000  0.67164000  0.00000000  1
  O  O55  1  0.80253000  0.67164000  0.88621000  1
  O  O56  1  0.30253000  0.67164000  0.77241000  1
  O  O57  1  0.80107000  0.66718300  0.66418800  1
  O  O58  1  0.29800800  0.67462700  0.56348800  1
  O  O59  1  0.00000000  0.17164000  0.95506000  1
  O  O60  1  0.50000000  0.17164000  0.84126000  1
  O  O61  1  0.00021600  0.15531300  0.72933600  1
  O  O62  1  0.50199600  0.16474100  0.61590600  1
  O  O63  1  0.50000000  0.17164000  0.93115000  1
  O  O64  1  0.00000000  0.17164000  0.81736000  1
  O  O65  1  0.49843400  0.16342500  0.70245500  1
  O  O66  1  0.01198300  0.16167400  0.59327600  1
  O  O67  1  0.00000000  0.50000000  0.95668000  1
  O  O68  1  0.50000000  0.50000000  0.84289000  1
  O  O69  1  0.00049200  0.50002000  0.72830400  1
  O  O70  1  0.50692200  0.50139000  0.62051800  1
  O  O71  1  0.50000000  0.50000000  0.92952000  1
  O  O72  1  0.00000000  0.50000000  0.81573000  1
  O  O73  1  0.50028400  0.50067600  0.70360000  1
  O  O74  1  0.99655400  0.50465600  0.59321600  1
  O  O75  1  0.69034000  0.00000000  0.00000000  1
  O  O76  1  0.19034000  1.00000000  0.88621000  1
  O  O77  1  0.69034000  0.00000000  0.77241000  1
  O  O78  1  0.20178800  0.99717500  0.65969400  1
  O  O79  1  0.78052000  0.02075000  0.52192300  1
  O  O80  1  0.30966000  1.00000000  0.00000000  1
  O  O81  1  0.80966000  0.00000000  0.88621000  1
  O  O82  1  0.30966000  1.00000000  0.77241000  1
  O  O83  1  0.80177000  0.00035300  0.66040200  1
  O  O84  1  0.21302900  0.96666700  0.52216200  1
