# generated using pymatgen
data_MgTiMnVZnCrFeCoCuNiSb20ClO54
_symmetry_space_group_name_H-M   'P 1'
_cell_length_a   6.68123300
_cell_length_b   9.58875400
_cell_length_c   28.75120000
_cell_angle_alpha   90.28382300
_cell_angle_beta   89.97397700
_cell_angle_gamma   89.60669100
_symmetry_Int_Tables_number   1
_chemical_formula_structural   MgTiMnVZnCrFeCoCuNiSb20ClO54
_chemical_formula_sum
'Mg1 Ti1 Mn1 V1 Zn1 Cr1 Fe1 Co1 Cu1 Ni1 Sb20 Cl1 O54'
_cell_volume   1841.87077689
_cell_formula_units_Z   1
loop_
 _symmetry_equiv_pos_site_id
 _symmetry_equiv_pos_as_xyz
  1  'x, y, z'
loop_
 _atom_site_type_symbol
 _atom_site_label
 _atom_site_symmetry_multiplicity
 _atom_site_fract_x
 _atom_site_fract_y
 _atom_site_fract_z
 _atom_site_occupancy
  Mg  Mg0  1  0.50000000  0.33232000  0.88621000  1
  Ti  Ti1  1  0.00000000  0.33232000  0.77241000  1
  Mn  Mn2  1  0.50000000  0.16768000  0.00000000  1
  V  V3  1  0.50000000  0.50000000  0.00000000  1
  Zn  Zn4  1  0.57634700  0.48806000  0.52972300  1
  Cr  Cr5  1  0.00859300  0.32700000  0.53959500  1
  Fe  Fe6  1  0.00000000  0.83232000  0.88621000  1
  Co  Co7  1  1.00000000  0.50000000  0.88621000  1
  Cu  Cu8  1  0.00129200  0.00889000  0.54289700  1
  Ni  Ni9  1  0.00000000  0.00000000  0.00000000  1
  Sb  Sb10  1  0.50000000  1.00000000  0.88621000  1
  Sb  Sb11  1  0.00000000  1.00000000  0.77241000  1
  Sb  Sb12  1  0.50093200  0.98681400  0.65710600  1
  Sb  Sb13  1  0.50000000  0.50000000  0.77241000  1
  Sb  Sb14  1  0.96628700  0.51258100  0.65632900  1
  Sb  Sb15  1  1.00000000  0.66768000  0.00000000  1
  Sb  Sb16  1  0.50000000  0.66768000  0.88621000  1
  Sb  Sb17  1  0.00000000  0.66768000  0.77241000  1
  Sb  Sb18  1  0.49392000  0.65092800  0.62066400  1
  Sb  Sb19  1  0.02225600  0.68233300  0.53763300  1
  Sb  Sb20  1  0.00000000  0.16768000  0.88621000  1
  Sb  Sb21  1  0.50000000  0.16768000  0.77241000  1
  Sb  Sb22  1  0.00421400  0.17032400  0.65428800  1
  Sb  Sb23  1  0.49401200  0.15593800  0.53726800  1
  Sb  Sb24  1  0.50000000  0.83232000  0.00000000  1
  Sb  Sb25  1  0.50000000  0.83232000  0.77241000  1
  Sb  Sb26  1  0.99937900  0.83339600  0.65461400  1
  Sb  Sb27  1  0.51017900  0.82945300  0.52452800  1
  Sb  Sb28  1  1.00000000  0.33232000  0.00000000  1
  Sb  Sb29  1  0.49013400  0.33161700  0.65568800  1
  Cl  Cl30  1  0.42752100  0.53789700  0.46438800  1
  O  O31  1  1.00000000  0.82836000  0.95506000  1
  O  O32  1  0.50000000  0.82836000  0.84126000  1
  O  O33  1  0.00019600  0.84474300  0.72934800  1
  O  O34  1  0.52079200  0.86387400  0.60226000  1
  O  O35  1  0.50000000  0.82836000  0.93115000  1
  O  O36  1  1.00000000  0.82836000  0.81736000  1
  O  O37  1  0.48165600  0.84141100  0.70399900  1
  O  O38  1  0.99314100  0.83470000  0.58654400  1
  O  O39  1  0.69747000  0.32836000  0.00000000  1
  O  O40  1  0.19747000  0.32836000  0.88621000  1
  O  O41  1  0.69747000  0.32836000  0.77241000  1
  O  O42  1  0.19724700  0.33984900  0.66153000  1
  O  O43  1  0.77834400  0.33622200  0.51579000  1
  O  O44  1  0.30253000  0.32836000  0.00000000  1
  O  O45  1  0.80253000  0.32836000  0.88621000  1
  O  O46  1  0.30253000  0.32836000  0.77241000  1
  O  O47  1  0.77638300  0.30437600  0.66459300  1
  O  O48  1  0.18995000  0.29609500  0.50603000  1
  O  O49  1  0.69747000  0.67164000  0.00000000  1
  O  O50  1  0.19747000  0.67164000  0.88621000  1
  O  O51  1  0.69747000  0.67164000  0.77241000  1
  O  O52  1  0.18662600  0.67243700  0.65915200  1
  O  O53  1  0.70093800  0.65716000  0.55667400  1
  O  O54  1  0.30253000  0.67164000  0.00000000  1
  O  O55  1  0.80253000  0.67164000  0.88621000  1
  O  O56  1  0.30253000  0.67164000  0.77241000  1
  O  O57  1  0.78781300  0.69902000  0.66752800  1
  O  O58  1  0.31916000  0.68438700  0.55881900  1
  O  O59  1  0.00000000  0.17164000  0.95506000  1
  O  O60  1  0.50000000  0.17164000  0.84126000  1
  O  O61  1  0.00021600  0.15531300  0.72933600  1
  O  O62  1  0.48405400  0.15047500  0.61365800  1
  O  O63  1  0.50000000  0.17164000  0.93115000  1
  O  O64  1  0.00000000  0.17164000  0.81736000  1
  O  O65  1  0.48007800  0.15662500  0.70206200  1
  O  O66  1  0.00477500  0.19255800  0.57920500  1
  O  O67  1  0.00000000  0.50000000  0.95668000  1
  O  O68  1  0.50000000  0.50000000  0.84289000  1
  O  O69  1  0.00049200  0.50002000  0.72830400  1
  O  O70  1  0.49593000  0.42336400  0.59450700  1
  O  O71  1  0.50000000  0.50000000  0.92952000  1
  O  O72  1  0.00000000  0.50000000  0.81573000  1
  O  O73  1  0.50710900  0.48661100  0.70112600  1
  O  O74  1  0.04015800  0.48886200  0.56858100  1
  O  O75  1  0.69034000  0.00000000  0.00000000  1
  O  O76  1  0.19034000  1.00000000  0.88621000  1
  O  O77  1  0.69034000  1.00000000  0.77241000  1
  O  O78  1  0.19788000  0.98617500  0.65711100  1
  O  O79  1  0.71154300  0.01068300  0.53312200  1
  O  O80  1  0.30966000  0.00000000  1.00000000  1
  O  O81  1  0.80966000  1.00000000  0.88621000  1
  O  O82  1  0.30966000  1.00000000  0.77241000  1
  O  O83  1  0.80336600  0.99704400  0.65954100  1
  O  O84  1  0.29560300  0.99863000  0.53300200  1
