# generated using pymatgen
data_MgTiMnVZnCrFeCoCuNiSb20ClO54
_symmetry_space_group_name_H-M   'P 1'
_cell_length_a   6.67874600
_cell_length_b   9.55685900
_cell_length_c   29.04461000
_cell_angle_alpha   90.19457100
_cell_angle_beta   89.98955500
_cell_angle_gamma   89.99723900
_symmetry_Int_Tables_number   1
_chemical_formula_structural   MgTiMnVZnCrFeCoCuNiSb20ClO54
_chemical_formula_sum
'Mg1 Ti1 Mn1 V1 Zn1 Cr1 Fe1 Co1 Cu1 Ni1 Sb20 Cl1 O54'
_cell_volume   1853.84381793
_cell_formula_units_Z   1
loop_
 _symmetry_equiv_pos_site_id
 _symmetry_equiv_pos_as_xyz
  1  'x, y, z'
loop_
 _atom_site_type_symbol
 _atom_site_label
 _atom_site_symmetry_multiplicity
 _atom_site_fract_x
 _atom_site_fract_y
 _atom_site_fract_z
 _atom_site_occupancy
  Mg  Mg0  1  0.50000000  0.50000000  0.22759000  1
  Ti  Ti1  1  0.00072300  0.79201500  0.33511200  1
  Mn  Mn2  1  0.50035300  0.66385400  0.33819800  1
  V  V3  1  0.00000000  0.00000000  0.22759000  1
  Zn  Zn4  1  0.50125500  0.51198700  0.45179900  1
  Cr  Cr5  1  0.00000000  0.66768000  0.00000000  1
  Fe  Fe6  1  0.50000000  0.83232000  0.22759000  1
  Co  Co7  1  0.00000000  0.33232000  0.22759000  1
  Cu  Cu8  1  0.50000000  0.33232000  0.11379000  1
  Ni  Ni9  1  0.00034500  0.50782000  0.33801500  1
  Sb  Sb10  1  0.00000000  0.00000000  0.00000000  1
  Sb  Sb11  1  0.50000000  0.00000000  0.11379000  1
  Sb  Sb12  1  0.49996900  0.99463600  0.34495900  1
  Sb  Sb13  1  0.00088000  0.99498900  0.42105900  1
  Sb  Sb14  1  0.50000000  0.50000000  0.00000000  1
  Sb  Sb15  1  0.00000000  0.50000000  0.11379000  1
  Sb  Sb16  1  0.50000000  0.66768000  0.11379000  1
  Sb  Sb17  1  0.00000000  0.66768000  0.22759000  1
  Sb  Sb18  1  0.99965900  0.66278700  0.45876700  1
  Sb  Sb19  1  0.50000000  0.16768000  0.00000000  1
  Sb  Sb20  1  0.00000000  0.16768000  0.11379000  1
  Sb  Sb21  1  0.50000000  0.16768000  0.22759000  1
  Sb  Sb22  1  0.00131300  0.18194000  0.33561900  1
  Sb  Sb23  1  0.50299700  0.20456600  0.46396900  1
  Sb  Sb24  1  0.50000000  0.83232000  0.00000000  1
  Sb  Sb25  1  0.00000000  0.83232000  0.11379000  1
  Sb  Sb26  1  0.49972200  0.83644500  0.46168200  1
  Sb  Sb27  1  0.00000000  0.33232000  0.00000000  1
  Sb  Sb28  1  0.50091600  0.34727000  0.34436600  1
  Sb  Sb29  1  0.99978400  0.34686800  0.45537400  1
  Cl  Cl30  1  0.51943200  0.41041000  0.52915700  1
  O  O31  1  0.00000000  0.82836000  0.04494000  1
  O  O32  1  0.50000000  0.82836000  0.15874000  1
  O  O33  1  0.99980400  0.84474300  0.27065200  1
  O  O34  1  0.49883800  0.83234600  0.38770900  1
  O  O35  1  0.50000000  0.82836000  0.06885000  1
  O  O36  1  1.00000000  0.82836000  0.18264000  1
  O  O37  1  0.50076300  0.83827400  0.29957900  1
  O  O38  1  0.00206800  0.79802000  0.40370300  1
  O  O39  1  0.30253000  0.32836000  1.00000000  1
  O  O40  1  0.80253000  0.32836000  0.11379000  1
  O  O41  1  0.30253000  0.32836000  0.22759000  1
  O  O42  1  0.80410800  0.33844300  0.33719900  1
  O  O43  1  0.30565600  0.34464100  0.43966200  1
  O  O44  1  0.69747000  0.32836000  0.00000000  1
  O  O45  1  0.19747000  0.32836000  0.11379000  1
  O  O46  1  0.69747000  0.32836000  0.22759000  1
  O  O47  1  0.19751000  0.33921100  0.33710300  1
  O  O48  1  0.69773800  0.34194400  0.43689900  1
  O  O49  1  0.30253000  0.67164000  1.00000000  1
  O  O50  1  0.80253000  0.67164000  0.11379000  1
  O  O51  1  0.30253000  0.67164000  0.22759000  1
  O  O52  1  0.79313700  0.67120300  0.33571600  1
  O  O53  1  0.30699200  0.67433500  0.45523200  1
  O  O54  1  0.69747000  0.67164000  0.00000000  1
  O  O55  1  0.19747000  0.67164000  0.11379000  1
  O  O56  1  0.69747000  0.67164000  0.22759000  1
  O  O57  1  0.20774700  0.67070900  0.33527600  1
  O  O58  1  0.69248300  0.67456800  0.45398500  1
  O  O59  1  0.00000000  0.17164000  0.04494000  1
  O  O60  1  0.50000000  0.17164000  0.15874000  1
  O  O61  1  0.99978400  0.15531300  0.27066400  1
  O  O62  1  0.49782000  0.16584100  0.38589300  1
  O  O63  1  0.50000000  0.17164000  0.06885000  1
  O  O64  1  0.00000000  0.17164000  0.18264000  1
  O  O65  1  0.50000400  0.16143000  0.29972000  1
  O  O66  1  0.00794200  0.19544300  0.40448800  1
  O  O67  1  1.00000000  0.50000000  0.04332000  1
  O  O68  1  0.50000000  0.50000000  0.15711000  1
  O  O69  1  0.99950800  0.50002000  0.27169600  1
  O  O70  1  0.49892000  0.52489900  0.38127500  1
  O  O71  1  0.50000000  0.50000000  0.07048000  1
  O  O72  1  0.00000000  0.50000000  0.18427000  1
  O  O73  1  0.50215000  0.51073500  0.29884800  1
  O  O74  1  0.00174000  0.50881400  0.41096900  1
  O  O75  1  0.30966000  1.00000000  1.00000000  1
  O  O76  1  0.80966000  0.00000000  0.11379000  1
  O  O77  1  0.30966000  1.00000000  0.22759000  1
  O  O78  1  0.81844700  0.00396700  0.35108500  1
  O  O79  1  0.23872100  0.00010900  0.45644600  1
  O  O80  1  0.69034000  0.00000000  0.00000000  1
  O  O81  1  0.19034000  1.00000000  0.11379000  1
  O  O82  1  0.69034000  0.00000000  0.22759000  1
  O  O83  1  0.18116700  0.00230100  0.35063800  1
  O  O84  1  0.76219200  0.00059000  0.45604300  1
