# generated using pymatgen
data_MgTiMnVZnCrFeCoCuNiSb20ClO54
_symmetry_space_group_name_H-M   'P 1'
_cell_length_a   6.58521100
_cell_length_b   9.66124900
_cell_length_c   28.60060300
_cell_angle_alpha   90.04930800
_cell_angle_beta   89.98249200
_cell_angle_gamma   89.98260500
_symmetry_Int_Tables_number   1
_chemical_formula_structural   MgTiMnVZnCrFeCoCuNiSb20ClO54
_chemical_formula_sum
'Mg1 Ti1 Mn1 V1 Zn1 Cr1 Fe1 Co1 Cu1 Ni1 Sb20 Cl1 O54'
_cell_volume   1819.60850811
_cell_formula_units_Z   1
loop_
 _symmetry_equiv_pos_site_id
 _symmetry_equiv_pos_as_xyz
  1  'x, y, z'
loop_
 _atom_site_type_symbol
 _atom_site_label
 _atom_site_symmetry_multiplicity
 _atom_site_fract_x
 _atom_site_fract_y
 _atom_site_fract_z
 _atom_site_occupancy
  Mg  Mg0  1  0.00000000  0.33232000  0.00000000  1
  Ti  Ti1  1  0.00000000  0.16768000  0.88621000  1
  Mn  Mn2  1  0.00000000  0.00000000  0.77241000  1
  V  V3  1  0.00000000  0.83232000  0.88621000  1
  Zn  Zn4  1  0.50079300  0.48768500  0.54879400  1
  Cr  Cr5  1  0.99911400  0.17143000  0.66346100  1
  Fe  Fe6  1  0.00000000  0.66768000  0.00000000  1
  Co  Co7  1  0.49931100  0.32190900  0.66040100  1
  Cu  Cu8  1  1.00000000  0.50000000  0.88621000  1
  Ni  Ni9  1  0.50000000  0.16768000  0.77241000  1
  Sb  Sb10  1  0.00000000  0.00000000  0.00000000  1
  Sb  Sb11  1  0.50000000  0.00000000  0.88621000  1
  Sb  Sb12  1  0.49951200  0.00692400  0.65508500  1
  Sb  Sb13  1  0.00344000  0.00423300  0.56940200  1
  Sb  Sb14  1  0.50000000  0.50000000  0.00000000  1
  Sb  Sb15  1  0.50000000  0.50000000  0.77241000  1
  Sb  Sb16  1  0.99965500  0.47164200  0.65015200  1
  Sb  Sb17  1  0.50000000  0.33232000  0.88621000  1
  Sb  Sb18  1  1.00000000  0.33232000  0.77241000  1
  Sb  Sb19  1  0.99958100  0.30964300  0.52759900  1
  Sb  Sb20  1  0.50000000  0.83232000  0.00000000  1
  Sb  Sb21  1  0.50000000  0.83232000  0.77241000  1
  Sb  Sb22  1  0.99966900  0.82889600  0.66118500  1
  Sb  Sb23  1  0.50348500  0.79532800  0.53110700  1
  Sb  Sb24  1  0.50000000  0.16768000  0.00000000  1
  Sb  Sb25  1  0.50175800  0.16739700  0.53406600  1
  Sb  Sb26  1  0.50000000  0.66768000  0.88621000  1
  Sb  Sb27  1  0.00000000  0.66768000  0.77241000  1
  Sb  Sb28  1  0.50023300  0.66186000  0.65261400  1
  Sb  Sb29  1  0.99782400  0.66644900  0.53257800  1
  Cl  Cl30  1  0.52647000  0.58046500  0.46797700  1
  O  O31  1  0.00000000  0.17164000  0.95506000  1
  O  O32  1  0.50000000  0.17164000  0.84126000  1
  O  O33  1  0.99980400  0.15525700  0.72934800  1
  O  O34  1  0.49935700  0.15170100  0.60694600  1
  O  O35  1  0.50000000  0.17164000  0.93115000  1
  O  O36  1  0.00000000  0.17164000  0.81736000  1
  O  O37  1  0.49991700  0.15995400  0.70040800  1
  O  O38  1  0.00133800  0.19321700  0.59252300  1
  O  O39  1  0.30253000  0.67164000  1.00000000  1
  O  O40  1  0.80253000  0.67164000  0.88621000  1
  O  O41  1  0.30253000  0.67164000  0.77241000  1
  O  O42  1  0.79849800  0.67808000  0.66580200  1
  O  O43  1  0.29792300  0.66016800  0.55656800  1
  O  O44  1  0.69747000  0.67164000  1.00000000  1
  O  O45  1  0.19747000  0.67164000  0.88621000  1
  O  O46  1  0.69747000  0.67164000  0.77241000  1
  O  O47  1  0.20120500  0.67782800  0.66549700  1
  O  O48  1  0.70373000  0.66230700  0.56021600  1
  O  O49  1  0.30253000  0.32836000  1.00000000  1
  O  O50  1  0.80253000  0.32836000  0.88621000  1
  O  O51  1  0.30253000  0.32836000  0.77241000  1
  O  O52  1  0.79856300  0.31410000  0.66436900  1
  O  O53  1  0.30536400  0.32522100  0.54254100  1
  O  O54  1  0.69747000  0.32836000  1.00000000  1
  O  O55  1  0.19747000  0.32836000  0.88621000  1
  O  O56  1  0.69747000  0.32836000  0.77241000  1
  O  O57  1  0.20018000  0.31399600  0.66456900  1
  O  O58  1  0.69635900  0.32561300  0.54407800  1
  O  O59  1  0.00000000  0.82836000  0.95506000  1
  O  O60  1  0.50000000  0.82836000  0.84126000  1
  O  O61  1  0.99978400  0.84468700  0.72933600  1
  O  O62  1  0.49803200  0.83823900  0.61226400  1
  O  O63  1  0.50000000  0.82836000  0.93115000  1
  O  O64  1  0.00000000  0.82836000  0.81736000  1
  O  O65  1  0.49930300  0.83419200  0.70088500  1
  O  O66  1  0.00400100  0.81074500  0.59210800  1
  O  O67  1  0.00000000  0.50000000  0.95668000  1
  O  O68  1  0.50000000  0.50000000  0.84289000  1
  O  O69  1  0.99950800  0.49998000  0.72830400  1
  O  O70  1  0.49848200  0.48299700  0.61972600  1
  O  O71  1  0.50000000  0.50000000  0.92952000  1
  O  O72  1  0.00000000  0.50000000  0.81573000  1
  O  O73  1  0.50006600  0.51117000  0.70414200  1
  O  O74  1  0.00125000  0.48453300  0.56388400  1
  O  O75  1  0.30966000  1.00000000  1.00000000  1
  O  O76  1  0.80966000  0.00000000  0.88621000  1
  O  O77  1  0.30966000  1.00000000  0.77241000  1
  O  O78  1  0.81525700  0.99813100  0.65042500  1
  O  O79  1  0.24893400  0.98954100  0.53575500  1
  O  O80  1  0.69034000  0.00000000  1.00000000  1
  O  O81  1  0.19034000  1.00000000  0.88621000  1
  O  O82  1  0.69034000  0.00000000  0.77241000  1
  O  O83  1  0.18320500  0.99852600  0.65066800  1
  O  O84  1  0.76191400  0.98753400  0.53437700  1
