# generated using pymatgen
data_MgTiMnVZnCrFeCoCuNiSb20ClO54
_symmetry_space_group_name_H-M   'P 1'
_cell_length_a   6.69474900
_cell_length_b   9.56032700
_cell_length_c   28.91393800
_cell_angle_alpha   89.71645800
_cell_angle_beta   89.94331500
_cell_angle_gamma   89.60733600
_symmetry_Int_Tables_number   1
_chemical_formula_structural   MgTiMnVZnCrFeCoCuNiSb20ClO54
_chemical_formula_sum
'Mg1 Ti1 Mn1 V1 Zn1 Cr1 Fe1 Co1 Cu1 Ni1 Sb20 Cl1 O54'
_cell_volume   1850.54042390
_cell_formula_units_Z   1
loop_
 _symmetry_equiv_pos_site_id
 _symmetry_equiv_pos_as_xyz
  1  'x, y, z'
loop_
 _atom_site_type_symbol
 _atom_site_label
 _atom_site_symmetry_multiplicity
 _atom_site_fract_x
 _atom_site_fract_y
 _atom_site_fract_z
 _atom_site_occupancy
  Mg  Mg0  1  0.50000000  0.00000000  0.88621000  1
  Ti  Ti1  1  0.50000000  0.66768000  0.88621000  1
  Mn  Mn2  1  0.50816900  0.00532900  0.66325900  1
  V  V3  1  0.00000000  0.00000000  0.77241000  1
  Zn  Zn4  1  0.48583200  0.49532400  0.55012100  1
  Cr  Cr5  1  0.51552800  0.85943400  0.55306400  1
  Fe  Fe6  1  0.00000000  0.50000000  0.88621000  1
  Co  Co7  1  0.00000000  0.00000000  0.00000000  1
  Cu  Cu8  1  0.49473700  0.18573400  0.55153300  1
  Ni  Ni9  1  0.50000000  0.83232000  0.77241000  1
  Sb  Sb10  1  0.96740500  0.00288000  0.54479800  1
  Sb  Sb11  1  0.50000000  0.50000000  1.00000000  1
  Sb  Sb12  1  0.50000000  0.50000000  0.77241000  1
  Sb  Sb13  1  0.98673400  0.49971800  0.64876700  1
  Sb  Sb14  1  0.00000000  0.66768000  0.00000000  1
  Sb  Sb15  1  0.00000000  0.66768000  0.77241000  1
  Sb  Sb16  1  0.50516800  0.68480700  0.66091600  1
  Sb  Sb17  1  0.10745400  0.69372700  0.52275500  1
  Sb  Sb18  1  0.50000000  0.16768000  1.00000000  1
  Sb  Sb19  1  0.00000000  0.16768000  0.88621000  1
  Sb  Sb20  1  0.50000000  0.16768000  0.77241000  1
  Sb  Sb21  1  0.00937400  0.16214500  0.65968200  1
  Sb  Sb22  1  0.50000000  0.83232000  1.00000000  1
  Sb  Sb23  1  0.00000000  0.83232000  0.88621000  1
  Sb  Sb24  1  0.00478300  0.84170900  0.65925100  1
  Sb  Sb25  1  0.00000000  0.33232000  0.00000000  1
  Sb  Sb26  1  0.50000000  0.33232000  0.88621000  1
  Sb  Sb27  1  0.00000000  0.33232000  0.77241000  1
  Sb  Sb28  1  0.49969800  0.32801900  0.65060100  1
  Sb  Sb29  1  0.00119400  0.33385200  0.53309700  1
  Cl  Cl30  1  0.33324700  0.53652900  0.47284000  1
  O  O31  1  0.00000000  0.82836000  0.95506000  1
  O  O32  1  0.50000000  0.82836000  0.84126000  1
  O  O33  1  0.00019600  0.84474300  0.72934800  1
  O  O34  1  0.53527400  0.84980600  0.61727100  1
  O  O35  1  0.50000000  0.82836000  0.93115000  1
  O  O36  1  0.00000000  0.82836000  0.81736000  1
  O  O37  1  0.50379600  0.84399100  0.70430700  1
  O  O38  1  0.98642600  0.83943900  0.58983200  1
  O  O39  1  0.69747000  0.32836000  0.00000000  1
  O  O40  1  0.19747000  0.32836000  0.88621000  1
  O  O41  1  0.69747000  0.32836000  0.77241000  1
  O  O42  1  0.19068300  0.32375800  0.66609100  1
  O  O43  1  0.70264500  0.34109600  0.55154300  1
  O  O44  1  0.30253000  0.32836000  1.00000000  1
  O  O45  1  0.80253000  0.32836000  0.88621000  1
  O  O46  1  0.30253000  0.32836000  0.77241000  1
  O  O47  1  0.80880300  0.31769700  0.66471100  1
  O  O48  1  0.29623700  0.33425200  0.55954100  1
  O  O49  1  0.69747000  0.67164000  0.00000000  1
  O  O50  1  0.19747000  0.67164000  0.88621000  1
  O  O51  1  0.69747000  0.67164000  0.77241000  1
  O  O52  1  0.20085500  0.68194500  0.66096900  1
  O  O53  1  0.66870900  0.77754300  0.51965500  1
  O  O54  1  0.30253000  0.67164000  1.00000000  1
  O  O55  1  0.80253000  0.67164000  0.88621000  1
  O  O56  1  0.30253000  0.67164000  0.77241000  1
  O  O57  1  0.81364700  0.68549000  0.66838300  1
  O  O58  1  0.34867300  0.69262100  0.56091500  1
  O  O59  1  0.00000000  0.17164000  0.95506000  1
  O  O60  1  0.50000000  0.17164000  0.84126000  1
  O  O61  1  0.00021600  0.15531300  0.72933600  1
  O  O62  1  0.48989500  0.13770700  0.61978500  1
  O  O63  1  0.50000000  0.17164000  0.93115000  1
  O  O64  1  0.00000000  0.17164000  0.81736000  1
  O  O65  1  0.50082700  0.16775500  0.70361800  1
  O  O66  1  0.00783800  0.16402200  0.59009700  1
  O  O67  1  0.00000000  0.50000000  0.95668000  1
  O  O68  1  0.50000000  0.50000000  0.84289000  1
  O  O69  1  0.00049200  0.50002000  0.72830400  1
  O  O70  1  0.56020500  0.52961000  0.61744100  1
  O  O71  1  0.50000000  0.50000000  0.92952000  1
  O  O72  1  0.00000000  0.50000000  0.81573000  1
  O  O73  1  0.49866000  0.50338400  0.70218300  1
  O  O74  1  0.98602400  0.53345200  0.55513800  1
  O  O75  1  0.69034000  1.00000000  0.00000000  1
  O  O76  1  0.19034000  0.00000000  0.88621000  1
  O  O77  1  0.69034000  1.00000000  0.77241000  1
  O  O78  1  0.20237700  0.99817300  0.66073200  1
  O  O79  1  0.67079800  0.02587500  0.55060000  1
  O  O80  1  0.30966000  0.00000000  1.00000000  1
  O  O81  1  0.80966000  1.00000000  0.88621000  1
  O  O82  1  0.30966000  0.00000000  0.77241000  1
  O  O83  1  0.81067700  0.00565800  0.66128700  1
  O  O84  1  0.31899100  0.96679900  0.53668400  1
