# generated using pymatgen
data_MgTiMnVZnCrFeCoCuNiSb20ClO54
_symmetry_space_group_name_H-M   'P 1'
_cell_length_a   6.68942700
_cell_length_b   9.50472700
_cell_length_c   29.33029200
_cell_angle_alpha   89.97611500
_cell_angle_beta   89.93055000
_cell_angle_gamma   89.94215700
_symmetry_Int_Tables_number   1
_chemical_formula_structural   MgTiMnVZnCrFeCoCuNiSb20ClO54
_chemical_formula_sum
'Mg1 Ti1 Mn1 V1 Zn1 Cr1 Fe1 Co1 Cu1 Ni1 Sb20 Cl1 O54'
_cell_volume   1864.85201808
_cell_formula_units_Z   1
loop_
 _symmetry_equiv_pos_site_id
 _symmetry_equiv_pos_as_xyz
  1  'x, y, z'
loop_
 _atom_site_type_symbol
 _atom_site_label
 _atom_site_symmetry_multiplicity
 _atom_site_fract_x
 _atom_site_fract_y
 _atom_site_fract_z
 _atom_site_occupancy
  Mg  Mg0  1  0.50000000  0.83232000  0.77241000  1
  Ti  Ti1  1  0.49972000  0.65526200  0.66008300  1
  Mn  Mn2  1  0.50000000  0.33232000  0.88621000  1
  V  V3  1  0.00225100  0.82256000  0.66497500  1
  Zn  Zn4  1  0.49710800  0.49846000  0.55073200  1
  Cr  Cr5  1  0.50039600  0.33509200  0.66186000  1
  Fe  Fe6  1  0.50000000  0.50000000  0.00000000  1
  Co  Co7  1  1.00000000  0.66768000  0.77241000  1
  Cu  Cu8  1  0.00000000  0.33232000  0.00000000  1
  Ni  Ni9  1  0.99771800  0.66844400  0.55843300  1
  Sb  Sb10  1  0.00000000  0.00000000  0.00000000  1
  Sb  Sb11  1  0.50000000  0.00000000  0.88621000  1
  Sb  Sb12  1  0.00000000  0.00000000  0.77241000  1
  Sb  Sb13  1  0.50250900  0.98865500  0.66222700  1
  Sb  Sb14  1  0.99593200  0.97244400  0.54795500  1
  Sb  Sb15  1  1.00000000  0.50000000  0.88621000  1
  Sb  Sb16  1  0.50000000  0.50000000  0.77241000  1
  Sb  Sb17  1  0.00104500  0.50086600  0.66043100  1
  Sb  Sb18  1  1.00000000  0.66768000  0.00000000  1
  Sb  Sb19  1  0.50000000  0.66768000  0.88621000  1
  Sb  Sb20  1  0.50000000  0.16768000  0.00000000  1
  Sb  Sb21  1  0.00000000  0.16768000  0.88621000  1
  Sb  Sb22  1  0.50000000  0.16768000  0.77241000  1
  Sb  Sb23  1  0.00013500  0.16260700  0.65694100  1
  Sb  Sb24  1  0.49767500  0.18322100  0.55368000  1
  Sb  Sb25  1  0.50000000  0.83232000  0.00000000  1
  Sb  Sb26  1  1.00000000  0.83232000  0.88621000  1
  Sb  Sb27  1  0.49640900  0.80727700  0.54199500  1
  Sb  Sb28  1  0.00000000  0.33232000  0.77241000  1
  Sb  Sb29  1  0.00946600  0.34448700  0.54399800  1
  Cl  Cl30  1  0.46311500  0.41887300  0.47628400  1
  O  O31  1  1.00000000  0.82836000  0.95506000  1
  O  O32  1  0.50000000  0.82836000  0.84126000  1
  O  O33  1  0.00019600  0.84474300  0.72934800  1
  O  O34  1  0.50223900  0.83356500  0.61475900  1
  O  O35  1  0.50000000  0.82836000  0.93115000  1
  O  O36  1  1.00000000  0.82836000  0.81736000  1
  O  O37  1  0.50206000  0.82654200  0.70175800  1
  O  O38  1  0.99745800  0.84899900  0.60286200  1
  O  O39  1  0.69747000  0.32836000  0.00000000  1
  O  O40  1  0.19747000  0.32836000  0.88621000  1
  O  O41  1  0.69747000  0.32836000  0.77241000  1
  O  O42  1  0.19551500  0.32949600  0.66278900  1
  O  O43  1  0.69794000  0.33147500  0.55902900  1
  O  O44  1  0.30253000  0.32836000  0.00000000  1
  O  O45  1  0.80253000  0.32836000  0.88621000  1
  O  O46  1  0.30253000  0.32836000  0.77241000  1
  O  O47  1  0.80570900  0.32774500  0.66219400  1
  O  O48  1  0.30009100  0.33142700  0.56778800  1
  O  O49  1  0.69747000  0.67164000  0.00000000  1
  O  O50  1  0.19747000  0.67164000  0.88621000  1
  O  O51  1  0.69747000  0.67164000  0.77241000  1
  O  O52  1  0.19297300  0.66889000  0.66217500  1
  O  O53  1  0.71509900  0.66254200  0.55006800  1
  O  O54  1  0.30253000  0.67164000  0.00000000  1
  O  O55  1  0.80253000  0.67164000  0.88621000  1
  O  O56  1  0.30253000  0.67164000  0.77241000  1
  O  O57  1  0.80875100  0.66910700  0.66275100  1
  O  O58  1  0.27778500  0.66066000  0.55240300  1
  O  O59  1  0.00000000  0.17164000  0.95506000  1
  O  O60  1  0.50000000  0.17164000  0.84126000  1
  O  O61  1  0.00021600  0.15531300  0.72933600  1
  O  O62  1  0.50472100  0.15982400  0.62184300  1
  O  O63  1  0.50000000  0.17164000  0.93115000  1
  O  O64  1  0.00000000  0.17164000  0.81736000  1
  O  O65  1  0.50029100  0.16615900  0.70462300  1
  O  O66  1  0.99317300  0.15605100  0.58928300  1
  O  O67  1  1.00000000  0.50000000  0.95668000  1
  O  O68  1  0.50000000  0.50000000  0.84289000  1
  O  O69  1  0.00049200  0.50002000  0.72830400  1
  O  O70  1  0.50329700  0.50518700  0.62274300  1
  O  O71  1  0.50000000  0.50000000  0.92952000  1
  O  O72  1  1.00000000  0.50000000  0.81573000  1
  O  O73  1  0.49954200  0.49297500  0.70396300  1
  O  O74  1  0.99329800  0.49198600  0.59292800  1
  O  O75  1  0.69034000  1.00000000  0.00000000  1
  O  O76  1  0.19034000  0.00000000  0.88621000  1
  O  O77  1  0.69034000  1.00000000  0.77241000  1
  O  O78  1  0.19608800  0.99744100  0.66258300  1
  O  O79  1  0.69361700  0.02827200  0.54188900  1
  O  O80  1  0.30966000  0.00000000  0.00000000  1
  O  O81  1  0.80966000  1.00000000  0.88621000  1
  O  O82  1  0.30966000  0.00000000  0.77241000  1
  O  O83  1  0.80762100  0.99882200  0.66423300  1
  O  O84  1  0.29375000  0.04110400  0.53744600  1
