# generated using pymatgen
data_MgTiMnVZnCrFeCoCuNiSb20ClO54
_symmetry_space_group_name_H-M   'P 1'
_cell_length_a   6.59375300
_cell_length_b   9.53846900
_cell_length_c   29.26329600
_cell_angle_alpha   90.17490600
_cell_angle_beta   89.92057100
_cell_angle_gamma   89.96950100
_symmetry_Int_Tables_number   1
_chemical_formula_structural   MgTiMnVZnCrFeCoCuNiSb20ClO54
_chemical_formula_sum
'Mg1 Ti1 Mn1 V1 Zn1 Cr1 Fe1 Co1 Cu1 Ni1 Sb20 Cl1 O54'
_cell_volume   1840.48415968
_cell_formula_units_Z   1
loop_
 _symmetry_equiv_pos_site_id
 _symmetry_equiv_pos_as_xyz
  1  'x, y, z'
loop_
 _atom_site_type_symbol
 _atom_site_label
 _atom_site_symmetry_multiplicity
 _atom_site_fract_x
 _atom_site_fract_y
 _atom_site_fract_z
 _atom_site_occupancy
  Mg  Mg0  1  0.50000000  0.83232000  0.22759000  1
  Ti  Ti1  1  0.99704000  0.51943800  0.34615000  1
  Mn  Mn2  1  0.50000000  0.50000000  1.00000000  1
  V  V3  1  1.00000000  0.33232000  1.00000000  1
  Zn  Zn4  1  0.50162300  0.50565300  0.45595800  1
  Cr  Cr5  1  0.00000000  0.83232000  0.11379000  1
  Fe  Fe6  1  0.50000000  0.50000000  0.22759000  1
  Co  Co7  1  0.99622200  0.82069600  0.33804000  1
  Cu  Cu8  1  0.00000000  0.00000000  0.00000000  1
  Ni  Ni9  1  0.50000000  0.83232000  1.00000000  1
  Sb  Sb10  1  0.50000000  1.00000000  0.11379000  1
  Sb  Sb11  1  0.00000000  0.00000000  0.22759000  1
  Sb  Sb12  1  0.49536000  0.99498000  0.35060400  1
  Sb  Sb13  1  0.00357900  0.98366300  0.42435900  1
  Sb  Sb14  1  0.00000000  0.50000000  0.11379000  1
  Sb  Sb15  1  0.00000000  0.66768000  1.00000000  1
  Sb  Sb16  1  0.50000000  0.66768000  0.11379000  1
  Sb  Sb17  1  0.00000000  0.66768000  0.22759000  1
  Sb  Sb18  1  0.49610500  0.66847300  0.34015400  1
  Sb  Sb19  1  0.99730000  0.65920100  0.46329600  1
  Sb  Sb20  1  0.50000000  0.16768000  1.00000000  1
  Sb  Sb21  1  0.00000000  0.16768000  0.11379000  1
  Sb  Sb22  1  0.50000000  0.16768000  0.22759000  1
  Sb  Sb23  1  0.98647800  0.18456200  0.34295800  1
  Sb  Sb24  1  0.50380000  0.20107500  0.46952800  1
  Sb  Sb25  1  0.49970400  0.82855200  0.46829500  1
  Sb  Sb26  1  0.50000000  0.33232000  0.11379000  1
  Sb  Sb27  1  1.00000000  0.33232000  0.22759000  1
  Sb  Sb28  1  0.49374200  0.34413600  0.34499800  1
  Sb  Sb29  1  0.99759300  0.34279900  0.46330200  1
  Cl  Cl30  1  0.52817600  0.39664600  0.53459900  1
  O  O31  1  0.00000000  0.82836000  0.04494000  1
  O  O32  1  0.50000000  0.82836000  0.15874000  1
  O  O33  1  0.99980400  0.84474300  0.27065200  1
  O  O34  1  0.48948000  0.82549700  0.39166500  1
  O  O35  1  0.50000000  0.82836000  0.06885000  1
  O  O36  1  0.00000000  0.82836000  0.18264000  1
  O  O37  1  0.49557700  0.84542000  0.30199600  1
  O  O38  1  0.00680600  0.78683600  0.40713400  1
  O  O39  1  0.30253000  0.32836000  1.00000000  1
  O  O40  1  0.80253000  0.32836000  0.11379000  1
  O  O41  1  0.30253000  0.32836000  0.22759000  1
  O  O42  1  0.79620300  0.36409900  0.34173300  1
  O  O43  1  0.30291000  0.34114500  0.44641000  1
  O  O44  1  0.69747000  0.32836000  1.00000000  1
  O  O45  1  0.19747000  0.32836000  0.11379000  1
  O  O46  1  0.69747000  0.32836000  0.22759000  1
  O  O47  1  0.19077200  0.35519000  0.34009700  1
  O  O48  1  0.69868900  0.33852500  0.44194500  1
  O  O49  1  0.30253000  0.67164000  1.00000000  1
  O  O50  1  0.80253000  0.67164000  0.11379000  1
  O  O51  1  0.30253000  0.67164000  0.22759000  1
  O  O52  1  0.79780600  0.66107500  0.33765000  1
  O  O53  1  0.30695100  0.66648600  0.45968200  1
  O  O54  1  0.69747000  0.67164000  1.00000000  1
  O  O55  1  0.19747000  0.67164000  0.11379000  1
  O  O56  1  0.69747000  0.67164000  0.22759000  1
  O  O57  1  0.19483500  0.66102100  0.33612000  1
  O  O58  1  0.69105000  0.66806700  0.45356500  1
  O  O59  1  0.00000000  0.17164000  0.04494000  1
  O  O60  1  0.50000000  0.17164000  0.15874000  1
  O  O61  1  0.99978400  0.15531300  0.27066400  1
  O  O62  1  0.49651800  0.17346600  0.38779600  1
  O  O63  1  0.50000000  0.17164000  0.06885000  1
  O  O64  1  1.00000000  0.17164000  0.18264000  1
  O  O65  1  0.50025500  0.16590700  0.30070500  1
  O  O66  1  0.00731400  0.18992200  0.41414700  1
  O  O67  1  1.00000000  0.50000000  0.04332000  1
  O  O68  1  0.50000000  0.50000000  0.15711000  1
  O  O69  1  0.99950800  0.50002000  0.27169600  1
  O  O70  1  0.48755000  0.51234900  0.38478600  1
  O  O71  1  0.50000000  0.50000000  0.07048000  1
  O  O72  1  0.00000000  0.50000000  0.18427000  1
  O  O73  1  0.49693600  0.49768100  0.29605300  1
  O  O74  1  0.00243000  0.50285100  0.41306200  1
  O  O75  1  0.30966000  0.00000000  0.00000000  1
  O  O76  1  0.80966000  1.00000000  0.11379000  1
  O  O77  1  0.30966000  0.00000000  0.22759000  1
  O  O78  1  0.80308800  0.98488000  0.35817900  1
  O  O79  1  0.24537800  0.98806800  0.46031500  1
  O  O80  1  0.69034000  1.00000000  1.00000000  1
  O  O81  1  0.19034000  0.00000000  0.11379000  1
  O  O82  1  0.69034000  1.00000000  0.22759000  1
  O  O83  1  0.18543900  0.99215600  0.35726000  1
  O  O84  1  0.76088400  0.98927000  0.46015900  1
