# generated using pymatgen
data_MgTiMnVZnCrFeCoCuNiSb20ClO54
_symmetry_space_group_name_H-M   'P 1'
_cell_length_a   6.67750900
_cell_length_b   9.53883300
_cell_length_c   29.53004900
_cell_angle_alpha   90.02956900
_cell_angle_beta   89.55724800
_cell_angle_gamma   89.96742700
_symmetry_Int_Tables_number   1
_chemical_formula_structural   MgTiMnVZnCrFeCoCuNiSb20ClO54
_chemical_formula_sum
'Mg1 Ti1 Mn1 V1 Zn1 Cr1 Fe1 Co1 Cu1 Ni1 Sb20 Cl1 O54'
_cell_volume   1880.87874751
_cell_formula_units_Z   1
loop_
 _symmetry_equiv_pos_site_id
 _symmetry_equiv_pos_as_xyz
  1  'x, y, z'
loop_
 _atom_site_type_symbol
 _atom_site_label
 _atom_site_symmetry_multiplicity
 _atom_site_fract_x
 _atom_site_fract_y
 _atom_site_fract_z
 _atom_site_occupancy
  Mg  Mg0  1  0.49628700  0.66186900  0.33957600  1
  Ti  Ti1  1  0.50000000  0.50000000  0.22759000  1
  Mn  Mn2  1  0.50000000  0.16768000  0.22759000  1
  V  V3  1  0.50000000  0.83232000  0.22759000  1
  Zn  Zn4  1  0.49672400  0.49783000  0.44849300  1
  Cr  Cr5  1  0.99630700  0.50642000  0.33916600  1
  Fe  Fe6  1  0.49224000  0.82831700  0.44229300  1
  Co  Co7  1  0.00000000  0.16768000  0.11379000  1
  Cu  Cu8  1  0.00000000  0.50000000  0.11379000  1
  Ni  Ni9  1  0.99363600  0.00211100  0.44301700  1
  Sb  Sb10  1  0.00000000  0.00000000  0.00000000  1
  Sb  Sb11  1  0.50000000  1.00000000  0.11379000  1
  Sb  Sb12  1  0.00000000  0.00000000  0.22759000  1
  Sb  Sb13  1  0.49402300  0.99112900  0.33264000  1
  Sb  Sb14  1  0.50000000  0.50000000  0.00000000  1
  Sb  Sb15  1  0.00000000  0.66768000  1.00000000  1
  Sb  Sb16  1  0.50000000  0.66768000  0.11379000  1
  Sb  Sb17  1  1.00000000  0.66768000  0.22759000  1
  Sb  Sb18  1  0.99203100  0.67135800  0.45284000  1
  Sb  Sb19  1  0.50000000  0.16768000  0.00000000  1
  Sb  Sb20  1  0.99526400  0.17274200  0.34148300  1
  Sb  Sb21  1  0.49044500  0.14876900  0.44522100  1
  Sb  Sb22  1  0.50000000  0.83232000  1.00000000  1
  Sb  Sb23  1  1.00000000  0.83232000  0.11379000  1
  Sb  Sb24  1  0.99698600  0.81707200  0.34157900  1
  Sb  Sb25  1  0.00000000  0.33232000  0.00000000  1
  Sb  Sb26  1  0.50000000  0.33232000  0.11379000  1
  Sb  Sb27  1  1.00000000  0.33232000  0.22759000  1
  Sb  Sb28  1  0.49501400  0.34288200  0.33773000  1
  Sb  Sb29  1  0.98872600  0.33169000  0.45541600  1
  Cl  Cl30  1  0.59918500  0.51019700  0.52024400  1
  O  O31  1  1.00000000  0.82836000  0.04494000  1
  O  O32  1  0.50000000  0.82836000  0.15874000  1
  O  O33  1  0.99980400  0.84474300  0.27065200  1
  O  O34  1  0.48394200  0.84161300  0.37669600  1
  O  O35  1  0.50000000  0.82836000  0.06885000  1
  O  O36  1  0.00000000  0.82836000  0.18264000  1
  O  O37  1  0.49842400  0.82920900  0.28901200  1
  O  O38  1  0.00602800  0.82958800  0.40795900  1
  O  O39  1  0.30253000  0.32836000  0.00000000  1
  O  O40  1  0.80253000  0.32836000  0.11379000  1
  O  O41  1  0.30253000  0.32836000  0.22759000  1
  O  O42  1  0.80292200  0.33708900  0.33720100  1
  O  O43  1  0.30728600  0.30496700  0.45742900  1
  O  O44  1  0.69747000  0.32836000  0.00000000  1
  O  O45  1  0.19747000  0.32836000  0.11379000  1
  O  O46  1  0.69747000  0.32836000  0.22759000  1
  O  O47  1  0.18746300  0.33748300  0.33575000  1
  O  O48  1  0.68998800  0.29769300  0.44222100  1
  O  O49  1  0.30253000  0.67164000  0.00000000  1
  O  O50  1  0.80253000  0.67164000  0.11379000  1
  O  O51  1  0.30253000  0.67164000  0.22759000  1
  O  O52  1  0.80547400  0.65966200  0.33745300  1
  O  O53  1  0.30950700  0.69190200  0.45061900  1
  O  O54  1  0.69747000  0.67164000  0.00000000  1
  O  O55  1  0.19747000  0.67164000  0.11379000  1
  O  O56  1  0.69747000  0.67164000  0.22759000  1
  O  O57  1  0.18723600  0.65831800  0.33647700  1
  O  O58  1  0.68068600  0.69979700  0.44181900  1
  O  O59  1  0.00000000  0.17164000  0.04494000  1
  O  O60  1  0.50000000  0.17164000  0.15874000  1
  O  O61  1  0.99978400  0.15531300  0.27066400  1
  O  O62  1  0.48145900  0.15930600  0.37727400  1
  O  O63  1  0.50000000  0.17164000  0.06885000  1
  O  O64  1  0.00000000  0.17164000  0.18264000  1
  O  O65  1  0.50128300  0.17105200  0.29445800  1
  O  O66  1  0.01919600  0.17458200  0.40851700  1
  O  O67  1  0.00000000  0.50000000  0.04332000  1
  O  O68  1  0.50000000  0.50000000  0.15711000  1
  O  O69  1  0.99950800  0.50002000  0.27169600  1
  O  O70  1  0.48999600  0.49114900  0.38191300  1
  O  O71  1  0.50000000  0.50000000  0.07048000  1
  O  O72  1  0.00000000  0.50000000  0.18427000  1
  O  O73  1  0.49922900  0.49688700  0.29050400  1
  O  O74  1  0.99770000  0.49943200  0.40882900  1
  O  O75  1  0.30966000  1.00000000  0.00000000  1
  O  O76  1  0.80966000  1.00000000  0.11379000  1
  O  O77  1  0.30966000  1.00000000  0.22759000  1
  O  O78  1  0.80449200  0.99729200  0.33904100  1
  O  O79  1  0.29645200  0.98834500  0.45271700  1
  O  O80  1  0.69034000  0.00000000  0.00000000  1
  O  O81  1  0.19034000  1.00000000  0.11379000  1
  O  O82  1  0.69034000  0.00000000  0.22759000  1
  O  O83  1  0.18405700  0.99717100  0.33654100  1
  O  O84  1  0.68870500  0.99026000  0.45085400  1
