# generated using pymatgen
data_MgTiMnVZnCrFeCoCuNiSb20ClO54
_symmetry_space_group_name_H-M   'P 1'
_cell_length_a   6.62189400
_cell_length_b   9.59217800
_cell_length_c   29.47752400
_cell_angle_alpha   90.08391700
_cell_angle_beta   89.89682100
_cell_angle_gamma   89.99678100
_symmetry_Int_Tables_number   1
_chemical_formula_structural   MgTiMnVZnCrFeCoCuNiSb20ClO54
_chemical_formula_sum
'Mg1 Ti1 Mn1 V1 Zn1 Cr1 Fe1 Co1 Cu1 Ni1 Sb20 Cl1 O54'
_cell_volume   1872.35969869
_cell_formula_units_Z   1
loop_
 _symmetry_equiv_pos_site_id
 _symmetry_equiv_pos_as_xyz
  1  'x, y, z'
loop_
 _atom_site_type_symbol
 _atom_site_label
 _atom_site_symmetry_multiplicity
 _atom_site_fract_x
 _atom_site_fract_y
 _atom_site_fract_z
 _atom_site_occupancy
  Mg  Mg0  1  0.00112600  0.17878500  0.66193100  1
  Ti  Ti1  1  0.00000000  0.66768000  0.77241000  1
  Mn  Mn2  1  0.50088400  0.34782900  0.66060000  1
  V  V3  1  0.50000000  0.00000000  0.88621000  1
  Zn  Zn4  1  0.49911000  0.51666100  0.54442100  1
  Cr  Cr5  1  0.00000000  0.00000000  0.00000000  1
  Fe  Fe6  1  0.49916900  0.83445800  0.55435200  1
  Co  Co7  1  0.50000000  0.50000000  0.77241000  1
  Cu  Cu8  1  0.50000000  0.83232000  1.00000000  1
  Ni  Ni9  1  0.00043200  0.82242300  0.66513300  1
  Sb  Sb10  1  0.00000000  0.00000000  0.77241000  1
  Sb  Sb11  1  0.50039000  0.00875100  0.65435200  1
  Sb  Sb12  1  0.99765200  0.98622900  0.58580800  1
  Sb  Sb13  1  0.50000000  0.50000000  1.00000000  1
  Sb  Sb14  1  1.00000000  0.50000000  0.88621000  1
  Sb  Sb15  1  0.00041400  0.49535700  0.65900200  1
  Sb  Sb16  1  0.00000000  0.66768000  1.00000000  1
  Sb  Sb17  1  0.50000000  0.66768000  0.88621000  1
  Sb  Sb18  1  0.50076500  0.65696800  0.66363800  1
  Sb  Sb19  1  0.00040000  0.66769700  0.54339100  1
  Sb  Sb20  1  0.50000000  0.16768000  1.00000000  1
  Sb  Sb21  1  0.00000000  0.16768000  0.88621000  1
  Sb  Sb22  1  0.50000000  0.16768000  0.77241000  1
  Sb  Sb23  1  0.49904600  0.19756700  0.54588000  1
  Sb  Sb24  1  1.00000000  0.83232000  0.88621000  1
  Sb  Sb25  1  0.50000000  0.83232000  0.77241000  1
  Sb  Sb26  1  1.00000000  0.33232000  1.00000000  1
  Sb  Sb27  1  0.50000000  0.33232000  0.88621000  1
  Sb  Sb28  1  0.00000000  0.33232000  0.77241000  1
  Sb  Sb29  1  0.00319700  0.33367500  0.54099500  1
  Cl  Cl30  1  0.46694700  0.46201400  0.46951200  1
  O  O31  1  0.00000000  0.82836000  0.95506000  1
  O  O32  1  0.50000000  0.82836000  0.84126000  1
  O  O33  1  0.00019600  0.84474300  0.72934800  1
  O  O34  1  0.50401600  0.82378900  0.62046200  1
  O  O35  1  0.50000000  0.82836000  0.93115000  1
  O  O36  1  0.00000000  0.82836000  0.81736000  1
  O  O37  1  0.49931200  0.84303600  0.70427200  1
  O  O38  1  0.99400800  0.78758000  0.59898500  1
  O  O39  1  0.69747000  0.32836000  1.00000000  1
  O  O40  1  0.19747000  0.32836000  0.88621000  1
  O  O41  1  0.69747000  0.32836000  0.77241000  1
  O  O42  1  0.20606900  0.34265300  0.66276500  1
  O  O43  1  0.69953400  0.34954400  0.55608900  1
  O  O44  1  0.30253000  0.32836000  1.00000000  1
  O  O45  1  0.80253000  0.32836000  0.88621000  1
  O  O46  1  0.30253000  0.32836000  0.77241000  1
  O  O47  1  0.79584900  0.34246100  0.66308200  1
  O  O48  1  0.30055800  0.34878600  0.55985200  1
  O  O49  1  0.69747000  0.67164000  1.00000000  1
  O  O50  1  0.19747000  0.67164000  0.88621000  1
  O  O51  1  0.69747000  0.67164000  0.77241000  1
  O  O52  1  0.19389900  0.65960200  0.66493000  1
  O  O53  1  0.68269300  0.69624000  0.54517200  1
  O  O54  1  0.30253000  0.67164000  1.00000000  1
  O  O55  1  0.80253000  0.67164000  0.88621000  1
  O  O56  1  0.30253000  0.67164000  0.77241000  1
  O  O57  1  0.80727200  0.65948500  0.66647600  1
  O  O58  1  0.31638200  0.69551500  0.54830900  1
  O  O59  1  0.00000000  0.17164000  0.95506000  1
  O  O60  1  0.50000000  0.17164000  0.84126000  1
  O  O61  1  0.00021600  0.15531300  0.72933600  1
  O  O62  1  0.50158400  0.18394500  0.61724000  1
  O  O63  1  0.50000000  0.17164000  0.93115000  1
  O  O64  1  0.00000000  0.17164000  0.81736000  1
  O  O65  1  0.50057100  0.16655700  0.70271900  1
  O  O66  1  0.99739200  0.18773900  0.59093600  1
  O  O67  1  0.00000000  0.50000000  0.95668000  1
  O  O68  1  0.50000000  0.50000000  0.84289000  1
  O  O69  1  0.00049200  0.50002000  0.72830400  1
  O  O70  1  0.50348600  0.49594100  0.62120500  1
  O  O71  1  0.50000000  0.50000000  0.92952000  1
  O  O72  1  0.00000000  0.50000000  0.81573000  1
  O  O73  1  0.49940800  0.49040700  0.70693300  1
  O  O74  1  0.99756400  0.50400100  0.58815100  1
  O  O75  1  0.69034000  1.00000000  1.00000000  1
  O  O76  1  0.19034000  0.00000000  0.88621000  1
  O  O77  1  0.69034000  0.00000000  0.77241000  1
  O  O78  1  0.18732500  0.99932800  0.64940100  1
  O  O79  1  0.72470500  0.97808500  0.55380000  1
  O  O80  1  0.30966000  1.00000000  0.00000000  1
  O  O81  1  0.80966000  0.00000000  0.88621000  1
  O  O82  1  0.30966000  0.00000000  0.77241000  1
  O  O83  1  0.81359400  0.99974000  0.64956600  1
  O  O84  1  0.27055200  0.97630800  0.55381200  1
