# generated using pymatgen
data_MgTiMnVZnCrFeCoCuNiSb20ClO54
_symmetry_space_group_name_H-M   'P 1'
_cell_length_a   6.66426400
_cell_length_b   9.42621700
_cell_length_c   28.83763500
_cell_angle_alpha   89.85872800
_cell_angle_beta   89.84683600
_cell_angle_gamma   89.81730900
_symmetry_Int_Tables_number   1
_chemical_formula_structural   MgTiMnVZnCrFeCoCuNiSb20ClO54
_chemical_formula_sum
'Mg1 Ti1 Mn1 V1 Zn1 Cr1 Fe1 Co1 Cu1 Ni1 Sb20 Cl1 O54'
_cell_volume   1811.52443517
_cell_formula_units_Z   1
loop_
 _symmetry_equiv_pos_site_id
 _symmetry_equiv_pos_as_xyz
  1  'x, y, z'
loop_
 _atom_site_type_symbol
 _atom_site_label
 _atom_site_symmetry_multiplicity
 _atom_site_fract_x
 _atom_site_fract_y
 _atom_site_fract_z
 _atom_site_occupancy
  Mg  Mg0  1  0.50000000  0.66768000  0.11379000  1
  Ti  Ti1  1  0.50000000  1.00000000  0.11379000  1
  Mn  Mn2  1  0.50000000  0.50000000  0.00000000  1
  V  V3  1  0.50000000  0.33232000  0.11379000  1
  Zn  Zn4  1  0.46575100  0.46783500  0.46007600  1
  Cr  Cr5  1  0.49774700  0.66488000  0.34370900  1
  Fe  Fe6  1  0.49476300  0.14752900  0.45552000  1
  Co  Co7  1  0.00000000  0.00000000  0.00000000  1
  Cu  Cu8  1  0.00000000  1.00000000  0.22759000  1
  Ni  Ni9  1  0.50000000  0.83232000  0.00000000  1
  Sb  Sb10  1  0.49944400  0.99055900  0.34534400  1
  Sb  Sb11  1  0.99666600  0.95543000  0.45562500  1
  Sb  Sb12  1  0.00000000  0.50000000  0.11379000  1
  Sb  Sb13  1  0.50000000  0.50000000  0.22759000  1
  Sb  Sb14  1  0.99733800  0.52149500  0.37178000  1
  Sb  Sb15  1  0.00000000  0.66768000  0.00000000  1
  Sb  Sb16  1  0.00000000  0.66768000  0.22759000  1
  Sb  Sb17  1  0.98137500  0.63003700  0.49219000  1
  Sb  Sb18  1  0.50000000  0.16768000  0.00000000  1
  Sb  Sb19  1  1.00000000  0.16768000  0.11379000  1
  Sb  Sb20  1  0.50000000  0.16768000  0.22759000  1
  Sb  Sb21  1  0.00136100  0.17257700  0.34191900  1
  Sb  Sb22  1  0.00000000  0.83232000  0.11379000  1
  Sb  Sb23  1  0.50000000  0.83232000  0.22759000  1
  Sb  Sb24  1  0.00430300  0.82803500  0.33799300  1
  Sb  Sb25  1  0.50174700  0.80536700  0.46238700  1
  Sb  Sb26  1  1.00000000  0.33232000  0.00000000  1
  Sb  Sb27  1  1.00000000  0.33232000  0.22759000  1
  Sb  Sb28  1  0.49935900  0.34126200  0.34668400  1
  Sb  Sb29  1  0.98649700  0.26150200  0.47673000  1
  Cl  Cl30  1  0.62430200  0.51927700  0.53137900  1
  O  O31  1  0.00000000  0.82836000  0.04494000  1
  O  O32  1  0.50000000  0.82836000  0.15874000  1
  O  O33  1  0.99980400  0.84474300  0.27065200  1
  O  O34  1  0.49067300  0.81843700  0.38921100  1
  O  O35  1  0.50000000  0.82836000  0.06885000  1
  O  O36  1  0.00000000  0.82836000  0.18264000  1
  O  O37  1  0.50086600  0.82361300  0.29839800  1
  O  O38  1  0.04901600  0.82894400  0.40382100  1
  O  O39  1  0.30253000  0.32836000  0.00000000  1
  O  O40  1  0.80253000  0.32836000  0.11379000  1
  O  O41  1  0.30253000  0.32836000  0.22759000  1
  O  O42  1  0.80222400  0.33660400  0.34598900  1
  O  O43  1  0.30624100  0.28667600  0.46642500  1
  O  O44  1  0.69747000  0.32836000  0.00000000  1
  O  O45  1  0.19747000  0.32836000  0.11379000  1
  O  O46  1  0.69747000  0.32836000  0.22759000  1
  O  O47  1  0.19592800  0.33843000  0.34361000  1
  O  O48  1  0.67963800  0.28602000  0.45951300  1
  O  O49  1  0.30253000  0.67164000  0.00000000  1
  O  O50  1  0.80253000  0.67164000  0.11379000  1
  O  O51  1  0.30253000  0.67164000  0.22759000  1
  O  O52  1  0.79867900  0.67195100  0.34060200  1
  O  O53  1  0.27273600  0.64617000  0.46055500  1
  O  O54  1  0.69747000  0.67164000  0.00000000  1
  O  O55  1  0.19747000  0.67164000  0.11379000  1
  O  O56  1  0.69747000  0.67164000  0.22759000  1
  O  O57  1  0.20080000  0.66514700  0.33752000  1
  O  O58  1  0.77006100  0.69051000  0.44735900  1
  O  O59  1  1.00000000  0.17164000  0.04494000  1
  O  O60  1  0.50000000  0.17164000  0.15874000  1
  O  O61  1  0.99978400  0.15531300  0.27066400  1
  O  O62  1  0.48807400  0.16461000  0.38638800  1
  O  O63  1  0.50000000  0.17164000  0.06885000  1
  O  O64  1  1.00000000  0.17164000  0.18264000  1
  O  O65  1  0.50425200  0.17506100  0.29868500  1
  O  O66  1  0.00629800  0.14422700  0.41448400  1
  O  O67  1  0.00000000  0.50000000  0.04332000  1
  O  O68  1  0.50000000  0.50000000  0.15711000  1
  O  O69  1  0.99950800  0.50002000  0.27169600  1
  O  O70  1  0.49795000  0.50514700  0.38899400  1
  O  O71  1  0.50000000  0.50000000  0.07048000  1
  O  O72  1  0.00000000  0.50000000  0.18427000  1
  O  O73  1  0.50547300  0.50106800  0.29897000  1
  O  O74  1  0.98665600  0.45520700  0.45344200  1
  O  O75  1  0.30966000  1.00000000  0.00000000  1
  O  O76  1  0.80966000  1.00000000  0.11379000  1
  O  O77  1  0.30966000  1.00000000  0.22759000  1
  O  O78  1  0.80807200  0.99865200  0.34160000  1
  O  O79  1  0.30962700  0.00261900  0.45919400  1
  O  O80  1  0.69034000  1.00000000  0.00000000  1
  O  O81  1  0.19034000  1.00000000  0.11379000  1
  O  O82  1  0.69034000  1.00000000  0.22759000  1
  O  O83  1  0.19580400  0.00177800  0.33637700  1
  O  O84  1  0.68440000  0.00367800  0.45187100  1
