# generated using pymatgen
data_MgTiMnVZnCrFeCoCuNiSb20ClO54
_symmetry_space_group_name_H-M   'P 1'
_cell_length_a   6.63471000
_cell_length_b   9.46602300
_cell_length_c   28.66150400
_cell_angle_alpha   90.25122200
_cell_angle_beta   89.86185100
_cell_angle_gamma   89.96597000
_symmetry_Int_Tables_number   1
_chemical_formula_structural   MgTiMnVZnCrFeCoCuNiSb20ClO54
_chemical_formula_sum
'Mg1 Ti1 Mn1 V1 Zn1 Cr1 Fe1 Co1 Cu1 Ni1 Sb20 Cl1 O54'
_cell_volume   1800.04333145
_cell_formula_units_Z   1
loop_
 _symmetry_equiv_pos_site_id
 _symmetry_equiv_pos_as_xyz
  1  'x, y, z'
loop_
 _atom_site_type_symbol
 _atom_site_label
 _atom_site_symmetry_multiplicity
 _atom_site_fract_x
 _atom_site_fract_y
 _atom_site_fract_z
 _atom_site_occupancy
  Mg  Mg0  1  0.50000000  0.00000000  0.11379000  1
  Ti  Ti1  1  0.00000000  0.66768000  1.00000000  1
  Mn  Mn2  1  0.50000000  0.50000000  1.00000000  1
  V  V3  1  0.00000000  0.00000000  0.22759000  1
  Zn  Zn4  1  0.50101500  0.49640300  0.46164800  1
  Cr  Cr5  1  0.50000000  0.50000000  0.22759000  1
  Fe  Fe6  1  0.00000000  0.83232000  0.11379000  1
  Co  Co7  1  0.00000000  0.00000000  0.00000000  1
  Cu  Cu8  1  0.00000000  0.50000000  0.11379000  1
  Ni  Ni9  1  0.49896200  0.99829200  0.34107800  1
  Sb  Sb10  1  0.00126900  0.00257500  0.46457300  1
  Sb  Sb11  1  0.99842300  0.50016600  0.35385100  1
  Sb  Sb12  1  0.50000000  0.66768000  0.11379000  1
  Sb  Sb13  1  1.00000000  0.66768000  0.22759000  1
  Sb  Sb14  1  0.49973000  0.67715400  0.34580600  1
  Sb  Sb15  1  0.99663600  0.65780100  0.46945800  1
  Sb  Sb16  1  0.50000000  0.16768000  1.00000000  1
  Sb  Sb17  1  0.00000000  0.16768000  0.11379000  1
  Sb  Sb18  1  0.50000000  0.16768000  0.22759000  1
  Sb  Sb19  1  0.00006200  0.15916700  0.34451100  1
  Sb  Sb20  1  0.49856400  0.17284600  0.44877500  1
  Sb  Sb21  1  0.50000000  0.83232000  1.00000000  1
  Sb  Sb22  1  0.50000000  0.83232000  0.22759000  1
  Sb  Sb23  1  0.99978100  0.84250300  0.34325900  1
  Sb  Sb24  1  0.50522200  0.80606900  0.46261800  1
  Sb  Sb25  1  0.00000000  0.33232000  1.00000000  1
  Sb  Sb26  1  0.50000000  0.33232000  0.11379000  1
  Sb  Sb27  1  1.00000000  0.33232000  0.22759000  1
  Sb  Sb28  1  0.49824400  0.33598700  0.33711700  1
  Sb  Sb29  1  0.99711000  0.32079400  0.47957200  1
  Cl  Cl30  1  0.54339000  0.56366300  0.53795000  1
  O  O31  1  0.00000000  0.82836000  0.04494000  1
  O  O32  1  0.50000000  0.82836000  0.15874000  1
  O  O33  1  0.99980400  0.84474300  0.27065200  1
  O  O34  1  0.49626600  0.83963000  0.38878700  1
  O  O35  1  0.50000000  0.82836000  0.06885000  1
  O  O36  1  0.00000000  0.82836000  0.18264000  1
  O  O37  1  0.50077300  0.83274600  0.29714300  1
  O  O38  1  0.00331500  0.84049700  0.41339800  1
  O  O39  1  0.30253000  0.32836000  1.00000000  1
  O  O40  1  0.80253000  0.32836000  0.11379000  1
  O  O41  1  0.30253000  0.32836000  0.22759000  1
  O  O42  1  0.80033600  0.32354000  0.33747100  1
  O  O43  1  0.30995400  0.32257200  0.46567700  1
  O  O44  1  0.69747000  0.32836000  1.00000000  1
  O  O45  1  0.19747000  0.32836000  0.11379000  1
  O  O46  1  0.69747000  0.32836000  0.22759000  1
  O  O47  1  0.19574200  0.32487400  0.33596900  1
  O  O48  1  0.69339800  0.32411600  0.45807100  1
  O  O49  1  0.30253000  0.67164000  1.00000000  1
  O  O50  1  0.80253000  0.67164000  0.11379000  1
  O  O51  1  0.30253000  0.67164000  0.22759000  1
  O  O52  1  0.80100600  0.68143800  0.33746800  1
  O  O53  1  0.29296800  0.65677800  0.44542500  1
  O  O54  1  0.69747000  0.67164000  1.00000000  1
  O  O55  1  0.19747000  0.67164000  0.11379000  1
  O  O56  1  0.69747000  0.67164000  0.22759000  1
  O  O57  1  0.19805000  0.68073400  0.33774600  1
  O  O58  1  0.71084500  0.65664500  0.44025900  1
  O  O59  1  0.00000000  0.17164000  0.04494000  1
  O  O60  1  0.50000000  0.17164000  0.15874000  1
  O  O61  1  0.99978400  0.15531300  0.27066400  1
  O  O62  1  0.49118200  0.17448400  0.38125200  1
  O  O63  1  0.50000000  0.17164000  0.06885000  1
  O  O64  1  0.00000000  0.17164000  0.18264000  1
  O  O65  1  0.50049200  0.16541800  0.29572200  1
  O  O66  1  0.00724700  0.16961000  0.41556500  1
  O  O67  1  0.00000000  0.50000000  0.04332000  1
  O  O68  1  0.50000000  0.50000000  0.15711000  1
  O  O69  1  0.99950800  0.50002000  0.27169600  1
  O  O70  1  0.49456200  0.49439900  0.38300200  1
  O  O71  1  0.50000000  0.50000000  0.07048000  1
  O  O72  1  0.00000000  0.50000000  0.18427000  1
  O  O73  1  0.50091400  0.50799800  0.29512200  1
  O  O74  1  0.00673900  0.47430600  0.42891600  1
  O  O75  1  0.30966000  0.00000000  0.00000000  1
  O  O76  1  0.80966000  0.00000000  0.11379000  1
  O  O77  1  0.30966000  1.00000000  0.22759000  1
  O  O78  1  0.79887400  0.00032900  0.34139300  1
  O  O79  1  0.31306700  0.01464300  0.45706900  1
  O  O80  1  0.69034000  0.00000000  1.00000000  1
  O  O81  1  0.19034000  0.00000000  0.11379000  1
  O  O82  1  0.69034000  1.00000000  0.22759000  1
  O  O83  1  0.20000200  0.99985700  0.33983900  1
  O  O84  1  0.69078900  0.01832500  0.45544400  1
