# generated using pymatgen
data_MgTiMnVZnCrFeCoCuNiSb20ClO54
_symmetry_space_group_name_H-M   'P 1'
_cell_length_a   6.68327000
_cell_length_b   9.64437100
_cell_length_c   28.71638200
_cell_angle_alpha   89.76156400
_cell_angle_beta   89.99149200
_cell_angle_gamma   89.93476700
_symmetry_Int_Tables_number   1
_chemical_formula_structural   MgTiMnVZnCrFeCoCuNiSb20ClO54
_chemical_formula_sum
'Mg1 Ti1 Mn1 V1 Zn1 Cr1 Fe1 Co1 Cu1 Ni1 Sb20 Cl1 O54'
_cell_volume   1850.92401628
_cell_formula_units_Z   1
loop_
 _symmetry_equiv_pos_site_id
 _symmetry_equiv_pos_as_xyz
  1  'x, y, z'
loop_
 _atom_site_type_symbol
 _atom_site_label
 _atom_site_symmetry_multiplicity
 _atom_site_fract_x
 _atom_site_fract_y
 _atom_site_fract_z
 _atom_site_occupancy
  Mg  Mg0  1  0.49979100  0.99968500  0.34285200  1
  Ti  Ti1  1  1.00000000  0.66768000  0.22759000  1
  Mn  Mn2  1  0.50000000  0.33232000  0.11379000  1
  V  V3  1  1.00000000  0.00000000  0.22759000  1
  Zn  Zn4  1  0.50189600  0.53424500  0.46100500  1
  Cr  Cr5  1  0.00154300  0.33631700  0.43900100  1
  Fe  Fe6  1  0.50342500  0.83735100  0.45162100  1
  Co  Co7  1  0.00000000  0.16768000  0.11379000  1
  Cu  Cu8  1  0.00000000  0.00000000  0.00000000  1
  Ni  Ni9  1  1.00000000  0.83232000  0.11379000  1
  Sb  Sb10  1  0.50000000  0.00000000  0.11379000  1
  Sb  Sb11  1  0.99971800  0.00547200  0.46057200  1
  Sb  Sb12  1  0.50000000  0.50000000  1.00000000  1
  Sb  Sb13  1  1.00000000  0.50000000  0.11379000  1
  Sb  Sb14  1  0.50000000  0.50000000  0.22759000  1
  Sb  Sb15  1  0.99931500  0.50343700  0.34697100  1
  Sb  Sb16  1  1.00000000  0.66768000  0.00000000  1
  Sb  Sb17  1  0.50000000  0.66768000  0.11379000  1
  Sb  Sb18  1  0.49989400  0.67293700  0.34578600  1
  Sb  Sb19  1  0.00333200  0.69171300  0.46978300  1
  Sb  Sb20  1  0.50000000  0.16768000  1.00000000  1
  Sb  Sb21  1  0.50000000  0.16768000  0.22759000  1
  Sb  Sb22  1  0.99953900  0.15432300  0.34022000  1
  Sb  Sb23  1  0.49526300  0.16540200  0.46427900  1
  Sb  Sb24  1  0.50000000  0.83232000  1.00000000  1
  Sb  Sb25  1  0.50000000  0.83232000  0.22759000  1
  Sb  Sb26  1  0.00040900  0.84274100  0.34121000  1
  Sb  Sb27  1  0.00000000  0.33232000  0.00000000  1
  Sb  Sb28  1  0.00000000  0.33232000  0.22759000  1
  Sb  Sb29  1  0.49980200  0.32360000  0.34754700  1
  Cl  Cl30  1  0.50583900  0.44582100  0.53103100  1
  O  O31  1  1.00000000  0.82836000  0.04494000  1
  O  O32  1  0.50000000  0.82836000  0.15874000  1
  O  O33  1  0.99980400  0.84474300  0.27065200  1
  O  O34  1  0.49778600  0.83431500  0.38516800  1
  O  O35  1  0.50000000  0.82836000  0.06885000  1
  O  O36  1  1.00000000  0.82836000  0.18264000  1
  O  O37  1  0.50014300  0.82762800  0.29631600  1
  O  O38  1  0.00495600  0.84154400  0.41314300  1
  O  O39  1  0.30253000  0.32836000  1.00000000  1
  O  O40  1  0.80253000  0.32836000  0.11379000  1
  O  O41  1  0.30253000  0.32836000  0.22759000  1
  O  O42  1  0.80243500  0.31150400  0.34080000  1
  O  O43  1  0.23396300  0.30440000  0.46153600  1
  O  O44  1  0.69747000  0.32836000  1.00000000  1
  O  O45  1  0.19747000  0.32836000  0.11379000  1
  O  O46  1  0.69747000  0.32836000  0.22759000  1
  O  O47  1  0.19672400  0.31189000  0.34083300  1
  O  O48  1  0.77249200  0.31500400  0.46047400  1
  O  O49  1  0.30253000  0.67164000  1.00000000  1
  O  O50  1  0.80253000  0.67164000  0.11379000  1
  O  O51  1  0.30253000  0.67164000  0.22759000  1
  O  O52  1  0.80499800  0.68369500  0.34056200  1
  O  O53  1  0.31452900  0.70029000  0.45949300  1
  O  O54  1  0.69747000  0.67164000  1.00000000  1
  O  O55  1  0.19747000  0.67164000  0.11379000  1
  O  O56  1  0.69747000  0.67164000  0.22759000  1
  O  O57  1  0.19462900  0.68256000  0.34010900  1
  O  O58  1  0.69287600  0.69851000  0.45776200  1
  O  O59  1  0.00000000  0.17164000  0.04494000  1
  O  O60  1  0.50000000  0.17164000  0.15874000  1
  O  O61  1  0.99978400  0.15531300  0.27066400  1
  O  O62  1  0.49971700  0.16712300  0.39200700  1
  O  O63  1  0.50000000  0.17164000  0.06885000  1
  O  O64  1  0.00000000  0.17164000  0.18264000  1
  O  O65  1  0.49990500  0.17109900  0.29811400  1
  O  O66  1  0.00218600  0.15142800  0.40954100  1
  O  O67  1  1.00000000  0.50000000  0.04332000  1
  O  O68  1  0.50000000  0.50000000  0.15711000  1
  O  O69  1  0.99950800  0.50002000  0.27169600  1
  O  O70  1  0.49983500  0.49758000  0.39062000  1
  O  O71  1  0.50000000  0.50000000  0.07048000  1
  O  O72  1  1.00000000  0.50000000  0.18427000  1
  O  O73  1  0.50131100  0.49739800  0.30267600  1
  O  O74  1  0.01111300  0.52763200  0.42930500  1
  O  O75  1  0.30966000  0.00000000  1.00000000  1
  O  O76  1  0.80966000  0.00000000  0.11379000  1
  O  O77  1  0.30966000  0.00000000  0.22759000  1
  O  O78  1  0.80420100  0.99869300  0.34105700  1
  O  O79  1  0.31729500  0.98513200  0.45815200  1
  O  O80  1  0.69034000  0.00000000  1.00000000  1
  O  O81  1  0.19034000  0.00000000  0.11379000  1
  O  O82  1  0.69034000  0.00000000  0.22759000  1
  O  O83  1  0.19560000  0.99897000  0.34072600  1
  O  O84  1  0.68701200  0.98307700  0.45647400  1
