# generated using pymatgen
data_MgTiMnVZnCrFeCoCuNiSb20ClO54
_symmetry_space_group_name_H-M   'P 1'
_cell_length_a   6.68035600
_cell_length_b   9.63080200
_cell_length_c   29.35843500
_cell_angle_alpha   90.05129200
_cell_angle_beta   89.95759400
_cell_angle_gamma   89.71892700
_symmetry_Int_Tables_number   1
_chemical_formula_structural   MgTiMnVZnCrFeCoCuNiSb20ClO54
_chemical_formula_sum
'Mg1 Ti1 Mn1 V1 Zn1 Cr1 Fe1 Co1 Cu1 Ni1 Sb20 Cl1 O54'
_cell_volume   1888.81508293
_cell_formula_units_Z   1
loop_
 _symmetry_equiv_pos_site_id
 _symmetry_equiv_pos_as_xyz
  1  'x, y, z'
loop_
 _atom_site_type_symbol
 _atom_site_label
 _atom_site_symmetry_multiplicity
 _atom_site_fract_x
 _atom_site_fract_y
 _atom_site_fract_z
 _atom_site_occupancy
  Mg  Mg0  1  0.50000000  0.16768000  0.22759000  1
  Ti  Ti1  1  0.99956300  0.50237600  0.33596900  1
  Mn  Mn2  1  0.00000000  0.33232000  0.00000000  1
  V  V3  1  0.00000000  0.83232000  0.11379000  1
  Zn  Zn4  1  0.99549300  0.65952000  0.42936000  1
  Cr  Cr5  1  0.95787200  0.99940700  0.44740000  1
  Fe  Fe6  1  0.50000000  0.83232000  0.00000000  1
  Co  Co7  1  0.55633600  0.19909600  0.44481100  1
  Cu  Cu8  1  1.00000000  0.66768000  0.22759000  1
  Ni  Ni9  1  0.52814800  0.48125500  0.45434200  1
  Sb  Sb10  1  0.00000000  0.00000000  0.00000000  1
  Sb  Sb11  1  0.50000000  1.00000000  0.11379000  1
  Sb  Sb12  1  0.00000000  0.00000000  0.22759000  1
  Sb  Sb13  1  0.49891800  0.99793600  0.33962800  1
  Sb  Sb14  1  0.50000000  0.50000000  0.00000000  1
  Sb  Sb15  1  0.00000000  0.50000000  0.11379000  1
  Sb  Sb16  1  0.50000000  0.50000000  0.22759000  1
  Sb  Sb17  1  0.50000000  0.33232000  0.11379000  1
  Sb  Sb18  1  1.00000000  0.33232000  0.22759000  1
  Sb  Sb19  1  0.50255000  0.33036900  0.33659600  1
  Sb  Sb20  1  0.04204800  0.35133200  0.45977200  1
  Sb  Sb21  1  0.50000000  0.83232000  0.22759000  1
  Sb  Sb22  1  0.99610300  0.83281100  0.33769100  1
  Sb  Sb23  1  0.48703800  0.78641900  0.46684100  1
  Sb  Sb24  1  0.50000000  0.16768000  0.00000000  1
  Sb  Sb25  1  1.00000000  0.16768000  0.11379000  1
  Sb  Sb26  1  0.00577300  0.17877800  0.34607800  1
  Sb  Sb27  1  0.00000000  0.66768000  0.00000000  1
  Sb  Sb28  1  0.50000000  0.66768000  0.11379000  1
  Sb  Sb29  1  0.49589700  0.66232400  0.36233200  1
  Cl  Cl30  1  0.49920800  0.58579600  0.52605000  1
  O  O31  1  1.00000000  0.17164000  0.04494000  1
  O  O32  1  0.50000000  0.17164000  0.15874000  1
  O  O33  1  0.00019600  0.15525700  0.27065200  1
  O  O34  1  0.49581000  0.16591000  0.38165000  1
  O  O35  1  0.50000000  0.17164000  0.06885000  1
  O  O36  1  1.00000000  0.17164000  0.18264000  1
  O  O37  1  0.49791200  0.16249500  0.29648100  1
  O  O38  1  0.04808500  0.15982800  0.42463900  1
  O  O39  1  0.69747000  0.67164000  0.00000000  1
  O  O40  1  0.19747000  0.67164000  0.11379000  1
  O  O41  1  0.69747000  0.67164000  0.22759000  1
  O  O42  1  0.18035900  0.66864300  0.34070000  1
  O  O43  1  0.69501100  0.65918600  0.43834300  1
  O  O44  1  0.30253000  0.67164000  0.00000000  1
  O  O45  1  0.80253000  0.67164000  0.11379000  1
  O  O46  1  0.30253000  0.67164000  0.22759000  1
  O  O47  1  0.81613400  0.66725100  0.34216900  1
  O  O48  1  0.29763900  0.65566600  0.43659500  1
  O  O49  1  0.69747000  0.32836000  0.00000000  1
  O  O50  1  0.19747000  0.32836000  0.11379000  1
  O  O51  1  0.69747000  0.32836000  0.22759000  1
  O  O52  1  0.20196700  0.34727400  0.33318600  1
  O  O53  1  0.73151100  0.33031900  0.46456800  1
  O  O54  1  0.30253000  0.32836000  0.00000000  1
  O  O55  1  0.80253000  0.32836000  0.11379000  1
  O  O56  1  0.30253000  0.32836000  0.22759000  1
  O  O57  1  0.80265500  0.34788400  0.33316200  1
  O  O58  1  0.35313000  0.31475900  0.46016100  1
  O  O59  1  1.00000000  0.82836000  0.04494000  1
  O  O60  1  0.50000000  0.82836000  0.15874000  1
  O  O61  1  0.00021600  0.84468700  0.27066400  1
  O  O62  1  0.49455100  0.86944200  0.39193600  1
  O  O63  1  0.50000000  0.82836000  0.06885000  1
  O  O64  1  1.00000000  0.82836000  0.18264000  1
  O  O65  1  0.50176900  0.83692800  0.29731800  1
  O  O66  1  0.98648100  0.85811300  0.40679400  1
  O  O67  1  0.00000000  0.50000000  0.04332000  1
  O  O68  1  0.50000000  0.50000000  0.15711000  1
  O  O69  1  0.00049200  0.49998000  0.27169600  1
  O  O70  1  0.50915600  0.45969500  0.38767400  1
  O  O71  1  0.50000000  0.50000000  0.07048000  1
  O  O72  1  0.00000000  0.50000000  0.18427000  1
  O  O73  1  0.49950000  0.49746100  0.29593900  1
  O  O74  1  0.01120200  0.46753800  0.40262600  1
  O  O75  1  0.69034000  0.00000000  0.00000000  1
  O  O76  1  0.19034000  1.00000000  0.11379000  1
  O  O77  1  0.69034000  0.00000000  0.22759000  1
  O  O78  1  0.19609900  0.99250600  0.33823400  1
  O  O79  1  0.71772200  0.04477400  0.45717900  1
  O  O80  1  0.30966000  0.00000000  0.00000000  1
  O  O81  1  0.80966000  1.00000000  0.11379000  1
  O  O82  1  0.30966000  0.00000000  0.22759000  1
  O  O83  1  0.80022800  0.99498400  0.33801800  1
  O  O84  1  0.09057800  0.95987400  0.49095100  1
