# generated using pymatgen
data_MgTiMnVZnCrFeCoCuNiSb20ClO54
_symmetry_space_group_name_H-M   'P 1'
_cell_length_a   6.67090200
_cell_length_b   9.64156300
_cell_length_c   29.19199300
_cell_angle_alpha   89.88112200
_cell_angle_beta   89.88358700
_cell_angle_gamma   89.97259200
_symmetry_Int_Tables_number   1
_chemical_formula_structural   MgTiMnVZnCrFeCoCuNiSb20ClO54
_chemical_formula_sum
'Mg1 Ti1 Mn1 V1 Zn1 Cr1 Fe1 Co1 Cu1 Ni1 Sb20 Cl1 O54'
_cell_volume   1877.56019805
_cell_formula_units_Z   1
loop_
 _symmetry_equiv_pos_site_id
 _symmetry_equiv_pos_as_xyz
  1  'x, y, z'
loop_
 _atom_site_type_symbol
 _atom_site_label
 _atom_site_symmetry_multiplicity
 _atom_site_fract_x
 _atom_site_fract_y
 _atom_site_fract_z
 _atom_site_occupancy
  Mg  Mg0  1  0.49415800  0.00580000  0.33928800  1
  Ti  Ti1  1  0.00262800  0.48533700  0.34378300  1
  Mn  Mn2  1  0.50000000  0.66768000  0.11379000  1
  V  V3  1  0.50000000  0.50000000  0.00000000  1
  Zn  Zn4  1  0.49609900  0.32531500  0.34508600  1
  Cr  Cr5  1  1.00000000  0.33232000  0.00000000  1
  Fe  Fe6  1  0.50000000  0.16768000  1.00000000  1
  Co  Co7  1  0.50000000  0.83232000  1.00000000  1
  Cu  Cu8  1  0.00000000  0.66768000  0.00000000  1
  Ni  Ni9  1  0.50855900  0.50120700  0.44536500  1
  Sb  Sb10  1  0.00000000  0.00000000  0.00000000  1
  Sb  Sb11  1  0.50000000  0.00000000  0.11379000  1
  Sb  Sb12  1  1.00000000  0.00000000  0.22759000  1
  Sb  Sb13  1  0.00764300  0.98898900  0.47427600  1
  Sb  Sb14  1  1.00000000  0.50000000  0.11379000  1
  Sb  Sb15  1  0.50000000  0.50000000  0.22759000  1
  Sb  Sb16  1  1.00000000  0.66768000  0.22759000  1
  Sb  Sb17  1  0.50084700  0.66503000  0.34048800  1
  Sb  Sb18  1  0.99447100  0.66616700  0.45906900  1
  Sb  Sb19  1  1.00000000  0.16768000  0.11379000  1
  Sb  Sb20  1  0.50000000  0.16768000  0.22759000  1
  Sb  Sb21  1  0.98689000  0.16213500  0.34906000  1
  Sb  Sb22  1  0.51312800  0.19056300  0.45122000  1
  Sb  Sb23  1  1.00000000  0.83232000  0.11379000  1
  Sb  Sb24  1  0.50000000  0.83232000  0.22759000  1
  Sb  Sb25  1  0.00029900  0.83335200  0.34552900  1
  Sb  Sb26  1  0.50077000  0.81434400  0.44721300  1
  Sb  Sb27  1  0.50000000  0.33232000  0.11379000  1
  Sb  Sb28  1  1.00000000  0.33232000  0.22759000  1
  Sb  Sb29  1  0.00132400  0.34630800  0.46221700  1
  Cl  Cl30  1  0.55511200  0.48480100  0.51972200  1
  O  O31  1  1.00000000  0.82836000  0.04494000  1
  O  O32  1  0.50000000  0.82836000  0.15874000  1
  O  O33  1  0.99980400  0.84474300  0.27065200  1
  O  O34  1  0.48589300  0.83282500  0.38114200  1
  O  O35  1  0.50000000  0.82836000  0.06885000  1
  O  O36  1  1.00000000  0.82836000  0.18264000  1
  O  O37  1  0.49631500  0.82619700  0.29473900  1
  O  O38  1  0.00882300  0.83361400  0.41596600  1
  O  O39  1  0.30253000  0.32836000  0.00000000  1
  O  O40  1  0.80253000  0.32836000  0.11379000  1
  O  O41  1  0.30253000  0.32836000  0.22759000  1
  O  O42  1  0.80035600  0.36761400  0.34089000  1
  O  O43  1  0.30571000  0.34371000  0.44518900  1
  O  O44  1  0.69747000  0.32836000  0.00000000  1
  O  O45  1  0.19747000  0.32836000  0.11379000  1
  O  O46  1  0.69747000  0.32836000  0.22759000  1
  O  O47  1  0.18750300  0.34784600  0.34106100  1
  O  O48  1  0.70761400  0.34890300  0.43730100  1
  O  O49  1  0.30253000  0.67164000  1.00000000  1
  O  O50  1  0.80253000  0.67164000  0.11379000  1
  O  O51  1  0.30253000  0.67164000  0.22759000  1
  O  O52  1  0.81013000  0.67011000  0.33938400  1
  O  O53  1  0.31613400  0.65750200  0.45407200  1
  O  O54  1  0.69747000  0.67164000  1.00000000  1
  O  O55  1  0.19747000  0.67164000  0.11379000  1
  O  O56  1  0.69747000  0.67164000  0.22759000  1
  O  O57  1  0.18931800  0.67357600  0.33828400  1
  O  O58  1  0.69271000  0.65877400  0.44134100  1
  O  O59  1  1.00000000  0.17164000  0.04494000  1
  O  O60  1  0.50000000  0.17164000  0.15874000  1
  O  O61  1  0.99978400  0.15531300  0.27066400  1
  O  O62  1  0.50492500  0.15448800  0.38579000  1
  O  O63  1  0.50000000  0.17164000  0.06885000  1
  O  O64  1  1.00000000  0.17164000  0.18264000  1
  O  O65  1  0.50137800  0.16744300  0.29326600  1
  O  O66  1  0.99988700  0.15270200  0.43094600  1
  O  O67  1  1.00000000  0.50000000  0.04332000  1
  O  O68  1  0.50000000  0.50000000  0.15711000  1
  O  O69  1  0.99950800  0.50002000  0.27169600  1
  O  O70  1  0.47730400  0.50905900  0.38227600  1
  O  O71  1  0.50000000  0.50000000  0.07048000  1
  O  O72  1  1.00000000  0.50000000  0.18427000  1
  O  O73  1  0.49495800  0.51066300  0.29515100  1
  O  O74  1  0.01352700  0.50889300  0.41374600  1
  O  O75  1  0.30966000  0.00000000  1.00000000  1
  O  O76  1  0.80966000  0.00000000  0.11379000  1
  O  O77  1  0.30966000  0.00000000  0.22759000  1
  O  O78  1  0.79883600  0.97943200  0.34173300  1
  O  O79  1  0.31127400  0.95851100  0.46502000  1
  O  O80  1  0.69034000  0.00000000  1.00000000  1
  O  O81  1  0.19034000  0.00000000  0.11379000  1
  O  O82  1  0.69034000  0.00000000  0.22759000  1
  O  O83  1  0.18779100  0.99086000  0.34190600  1
  O  O84  1  0.70739600  0.93599600  0.47054700  1
