# generated using pymatgen
data_MgTiMnVZnCrFeCoCuNiSb20ClO54
_symmetry_space_group_name_H-M   'P 1'
_cell_length_a   6.58923500
_cell_length_b   9.82986000
_cell_length_c   28.99219500
_cell_angle_alpha   89.92762900
_cell_angle_beta   89.97558400
_cell_angle_gamma   89.98346500
_symmetry_Int_Tables_number   1
_chemical_formula_structural   MgTiMnVZnCrFeCoCuNiSb20ClO54
_chemical_formula_sum
'Mg1 Ti1 Mn1 V1 Zn1 Cr1 Fe1 Co1 Cu1 Ni1 Sb20 Cl1 O54'
_cell_volume   1877.85918306
_cell_formula_units_Z   1
loop_
 _symmetry_equiv_pos_site_id
 _symmetry_equiv_pos_as_xyz
  1  'x, y, z'
loop_
 _atom_site_type_symbol
 _atom_site_label
 _atom_site_symmetry_multiplicity
 _atom_site_fract_x
 _atom_site_fract_y
 _atom_site_fract_z
 _atom_site_occupancy
  Mg  Mg0  1  0.00000000  0.66768000  0.22759000  1
  Ti  Ti1  1  0.00000000  0.83232000  0.11379000  1
  Mn  Mn2  1  0.00019600  0.65458500  0.43135400  1
  V  V3  1  0.00033500  0.19016900  0.33519500  1
  Zn  Zn4  1  0.99932200  0.81937000  0.33445400  1
  Cr  Cr5  1  0.00000000  0.33232000  0.22759000  1
  Fe  Fe6  1  0.99961500  0.50491500  0.33352600  1
  Co  Co7  1  0.00000000  0.66768000  0.00000000  1
  Cu  Cu8  1  0.00000000  0.00000000  0.00000000  1
  Ni  Ni9  1  0.49822100  0.49463200  0.44890700  1
  Sb  Sb10  1  0.50000000  1.00000000  0.11379000  1
  Sb  Sb11  1  0.00000000  0.00000000  0.22759000  1
  Sb  Sb12  1  0.49966700  0.00258300  0.34853100  1
  Sb  Sb13  1  0.99791600  0.01059800  0.41796500  1
  Sb  Sb14  1  0.50000000  0.50000000  0.00000000  1
  Sb  Sb15  1  0.00000000  0.50000000  0.11379000  1
  Sb  Sb16  1  0.50000000  0.50000000  0.22759000  1
  Sb  Sb17  1  0.00000000  0.33232000  0.00000000  1
  Sb  Sb18  1  0.50000000  0.33232000  0.11379000  1
  Sb  Sb19  1  0.49999000  0.33029600  0.34643100  1
  Sb  Sb20  1  0.99976100  0.34988500  0.45506700  1
  Sb  Sb21  1  0.50000000  0.83232000  0.00000000  1
  Sb  Sb22  1  0.50000000  0.83232000  0.22759000  1
  Sb  Sb23  1  0.50055700  0.79860000  0.46078500  1
  Sb  Sb24  1  0.50000000  0.16768000  0.00000000  1
  Sb  Sb25  1  0.00000000  0.16768000  0.11379000  1
  Sb  Sb26  1  0.50000000  0.16768000  0.22759000  1
  Sb  Sb27  1  0.49839000  0.18199800  0.46397300  1
  Sb  Sb28  1  0.50000000  0.66768000  0.11379000  1
  Sb  Sb29  1  0.49966600  0.66364100  0.34202000  1
  Cl  Cl30  1  0.49518700  0.49236600  0.52387800  1
  O  O31  1  0.00000000  0.17164000  0.04494000  1
  O  O32  1  0.50000000  0.17164000  0.15874000  1
  O  O33  1  0.00019600  0.15525700  0.27065200  1
  O  O34  1  0.50180200  0.16464200  0.39055500  1
  O  O35  1  0.50000000  0.17164000  0.06885000  1
  O  O36  1  0.00000000  0.17164000  0.18264000  1
  O  O37  1  0.50000400  0.15707200  0.29953200  1
  O  O38  1  0.99743700  0.20554800  0.40266200  1
  O  O39  1  0.69747000  0.67164000  0.00000000  1
  O  O40  1  0.19747000  0.67164000  0.11379000  1
  O  O41  1  0.69747000  0.67164000  0.22759000  1
  O  O42  1  0.20287900  0.65818300  0.33856700  1
  O  O43  1  0.71628400  0.65382500  0.44737300  1
  O  O44  1  0.30253000  0.67164000  0.00000000  1
  O  O45  1  0.80253000  0.67164000  0.11379000  1
  O  O46  1  0.30253000  0.67164000  0.22759000  1
  O  O47  1  0.79664500  0.65815300  0.33855600  1
  O  O48  1  0.28547200  0.65271200  0.44687000  1
  O  O49  1  0.69747000  0.32836000  1.00000000  1
  O  O50  1  0.19747000  0.32836000  0.11379000  1
  O  O51  1  0.69747000  0.32836000  0.22759000  1
  O  O52  1  0.19188900  0.32737000  0.33508700  1
  O  O53  1  0.68626000  0.33973600  0.44361300  1
  O  O54  1  0.30253000  0.32836000  0.00000000  1
  O  O55  1  0.80253000  0.32836000  0.11379000  1
  O  O56  1  0.30253000  0.32836000  0.22759000  1
  O  O57  1  0.80786500  0.32712100  0.33484300  1
  O  O58  1  0.31079600  0.33805800  0.44209500  1
  O  O59  1  0.00000000  0.82836000  0.04494000  1
  O  O60  1  0.50000000  0.82836000  0.15874000  1
  O  O61  1  0.00021600  0.84468700  0.27066400  1
  O  O62  1  0.49935900  0.83140000  0.38860300  1
  O  O63  1  0.50000000  0.82836000  0.06885000  1
  O  O64  1  0.00000000  0.82836000  0.18264000  1
  O  O65  1  0.49997900  0.84590500  0.29996500  1
  O  O66  1  0.00015300  0.82036900  0.40275000  1
  O  O67  1  0.00000000  0.50000000  0.04332000  1
  O  O68  1  0.50000000  0.50000000  0.15711000  1
  O  O69  1  0.00049200  0.49998000  0.27169600  1
  O  O70  1  0.50081200  0.50008300  0.38438700  1
  O  O71  1  0.50000000  0.50000000  0.07048000  1
  O  O72  1  0.00000000  0.50000000  0.18427000  1
  O  O73  1  0.49965600  0.49185400  0.29747800  1
  O  O74  1  0.99810100  0.48536600  0.40402300  1
  O  O75  1  0.69034000  0.00000000  1.00000000  1
  O  O76  1  0.19034000  1.00000000  0.11379000  1
  O  O77  1  0.69034000  0.00000000  0.22759000  1
  O  O78  1  0.18712000  0.02399700  0.35121600  1
  O  O79  1  0.74823000  0.01532000  0.45355600  1
  O  O80  1  0.30966000  1.00000000  1.00000000  1
  O  O81  1  0.80966000  0.00000000  0.11379000  1
  O  O82  1  0.30966000  1.00000000  0.22759000  1
  O  O83  1  0.81276700  0.02254800  0.35107900  1
  O  O84  1  0.24749400  0.01595800  0.45354100  1
