# generated using pymatgen
data_MgTiMnVZnCrFeCoCuNiSb20ClO54
_symmetry_space_group_name_H-M   'P 1'
_cell_length_a   6.67875900
_cell_length_b   9.56730900
_cell_length_c   29.22531500
_cell_angle_alpha   89.84367300
_cell_angle_beta   89.98750100
_cell_angle_gamma   89.99965500
_symmetry_Int_Tables_number   1
_chemical_formula_structural   MgTiMnVZnCrFeCoCuNiSb20ClO54
_chemical_formula_sum
'Mg1 Ti1 Mn1 V1 Zn1 Cr1 Fe1 Co1 Cu1 Ni1 Sb20 Cl1 O54'
_cell_volume   1867.42490808
_cell_formula_units_Z   1
loop_
 _symmetry_equiv_pos_site_id
 _symmetry_equiv_pos_as_xyz
  1  'x, y, z'
loop_
 _atom_site_type_symbol
 _atom_site_label
 _atom_site_symmetry_multiplicity
 _atom_site_fract_x
 _atom_site_fract_y
 _atom_site_fract_z
 _atom_site_occupancy
  Mg  Mg0  1  0.00000000  0.33232000  0.22759000  1
  Ti  Ti1  1  0.49984600  0.02003300  0.34203600  1
  Mn  Mn2  1  0.00000000  0.66768000  0.22759000  1
  V  V3  1  0.99976900  0.83928700  0.33889900  1
  Zn  Zn4  1  0.99915600  0.98324300  0.44267000  1
  Cr  Cr5  1  0.50000000  0.66768000  0.11379000  1
  Fe  Fe6  1  0.99937200  0.67500900  0.44051600  1
  Co  Co7  1  0.49943000  0.33427400  0.34233700  1
  Cu  Cu8  1  0.00000000  0.16768000  0.11379000  1
  Ni  Ni9  1  0.49925600  0.50813300  0.44560000  1
  Sb  Sb10  1  0.00000000  0.00000000  0.00000000  1
  Sb  Sb11  1  0.50000000  1.00000000  0.11379000  1
  Sb  Sb12  1  0.00000000  0.00000000  0.22759000  1
  Sb  Sb13  1  0.50000000  0.50000000  0.00000000  1
  Sb  Sb14  1  0.00000000  0.50000000  0.11379000  1
  Sb  Sb15  1  0.50000000  0.50000000  0.22759000  1
  Sb  Sb16  1  0.99943400  0.49930800  0.33701500  1
  Sb  Sb17  1  0.00000000  0.33232000  0.00000000  1
  Sb  Sb18  1  0.50000000  0.33232000  0.11379000  1
  Sb  Sb19  1  0.99994300  0.33935100  0.45147600  1
  Sb  Sb20  1  0.50000000  0.83232000  0.00000000  1
  Sb  Sb21  1  0.00000000  0.83232000  0.11379000  1
  Sb  Sb22  1  0.50000000  0.83232000  0.22759000  1
  Sb  Sb23  1  0.49946700  0.82885800  0.44914100  1
  Sb  Sb24  1  0.50000000  0.16768000  0.00000000  1
  Sb  Sb25  1  0.50000000  0.16768000  0.22759000  1
  Sb  Sb26  1  0.99957600  0.16481600  0.33981400  1
  Sb  Sb27  1  0.49900900  0.19342500  0.45759200  1
  Sb  Sb28  1  0.00000000  0.66768000  0.00000000  1
  Sb  Sb29  1  0.49978100  0.66884300  0.33877900  1
  Cl  Cl30  1  0.49677100  0.47310500  0.51991200  1
  O  O31  1  0.00000000  0.17164000  0.04494000  1
  O  O32  1  0.50000000  0.17164000  0.15874000  1
  O  O33  1  0.00019600  0.15525700  0.27065200  1
  O  O34  1  0.49992300  0.14310600  0.38769400  1
  O  O35  1  0.50000000  0.17164000  0.06885000  1
  O  O36  1  0.00000000  0.17164000  0.18264000  1
  O  O37  1  0.49976900  0.15709500  0.29579200  1
  O  O38  1  0.99970200  0.16665600  0.40995300  1
  O  O39  1  0.69747000  0.67164000  1.00000000  1
  O  O40  1  0.19747000  0.67164000  0.11379000  1
  O  O41  1  0.69747000  0.67164000  0.22759000  1
  O  O42  1  0.18987500  0.67459600  0.33612000  1
  O  O43  1  0.70585400  0.67347900  0.45116400  1
  O  O44  1  0.30253000  0.67164000  0.00000000  1
  O  O45  1  0.80253000  0.67164000  0.11379000  1
  O  O46  1  0.30253000  0.67164000  0.22759000  1
  O  O47  1  0.80945600  0.67450300  0.33586000  1
  O  O48  1  0.29342300  0.67346500  0.45071800  1
  O  O49  1  0.69747000  0.32836000  1.00000000  1
  O  O50  1  0.19747000  0.32836000  0.11379000  1
  O  O51  1  0.69747000  0.32836000  0.22759000  1
  O  O52  1  0.19523600  0.32983200  0.33904600  1
  O  O53  1  0.69232900  0.34570100  0.43759300  1
  O  O54  1  0.30253000  0.32836000  0.00000000  1
  O  O55  1  0.80253000  0.32836000  0.11379000  1
  O  O56  1  0.30253000  0.32836000  0.22759000  1
  O  O57  1  0.80395400  0.32975500  0.33897900  1
  O  O58  1  0.30704300  0.34596400  0.43695000  1
  O  O59  1  0.00000000  0.82836000  0.04494000  1
  O  O60  1  0.50000000  0.82836000  0.15874000  1
  O  O61  1  0.00021600  0.84468700  0.27066400  1
  O  O62  1  0.50000300  0.83963100  0.38068500  1
  O  O63  1  0.50000000  0.82836000  0.06885000  1
  O  O64  1  0.00000000  0.82836000  0.18264000  1
  O  O65  1  0.49953700  0.83820100  0.29616300  1
  O  O66  1  0.99724200  0.82830300  0.39863900  1
  O  O67  1  0.00000000  0.50000000  0.04332000  1
  O  O68  1  0.50000000  0.50000000  0.15711000  1
  O  O69  1  0.00049200  0.49998000  0.27169600  1
  O  O70  1  0.50111400  0.51137600  0.38091100  1
  O  O71  1  0.50000000  0.50000000  0.07048000  1
  O  O72  1  0.00000000  0.50000000  0.18427000  1
  O  O73  1  0.49986100  0.50453200  0.29551300  1
  O  O74  1  0.99944700  0.50298500  0.40608100  1
  O  O75  1  0.69034000  0.00000000  1.00000000  1
  O  O76  1  0.19034000  1.00000000  0.11379000  1
  O  O77  1  0.69034000  0.00000000  0.22759000  1
  O  O78  1  0.19413200  0.99945000  0.33951900  1
  O  O79  1  0.70868700  0.97304100  0.46019900  1
  O  O80  1  0.30966000  1.00000000  0.00000000  1
  O  O81  1  0.80966000  0.00000000  0.11379000  1
  O  O82  1  0.30966000  1.00000000  0.22759000  1
  O  O83  1  0.80506200  0.99953800  0.33939900  1
  O  O84  1  0.28910800  0.97199100  0.46041500  1
