# generated using pymatgen
data_MgTiMnVZnCrFeCoCuNiSb20ClO54
_symmetry_space_group_name_H-M   'P 1'
_cell_length_a   6.72075000
_cell_length_b   9.49791100
_cell_length_c   29.33277600
_cell_angle_alpha   90.17242800
_cell_angle_beta   89.98445400
_cell_angle_gamma   89.99021400
_symmetry_Int_Tables_number   1
_chemical_formula_structural   MgTiMnVZnCrFeCoCuNiSb20ClO54
_chemical_formula_sum
'Mg1 Ti1 Mn1 V1 Zn1 Cr1 Fe1 Co1 Cu1 Ni1 Sb20 Cl1 O54'
_cell_volume   1872.39301867
_cell_formula_units_Z   1
loop_
 _symmetry_equiv_pos_site_id
 _symmetry_equiv_pos_as_xyz
  1  'x, y, z'
loop_
 _atom_site_type_symbol
 _atom_site_label
 _atom_site_symmetry_multiplicity
 _atom_site_fract_x
 _atom_site_fract_y
 _atom_site_fract_z
 _atom_site_occupancy
  Mg  Mg0  1  0.00000000  0.00000000  0.22759000  1
  Ti  Ti1  1  0.50000000  0.50000000  0.22759000  1
  Mn  Mn2  1  0.00131200  0.00677200  0.44185900  1
  V  V3  1  1.00000000  0.50000000  0.11379000  1
  Zn  Zn4  1  0.00129500  0.67114000  0.44215400  1
  Cr  Cr5  1  0.49939000  0.66728900  0.33804600  1
  Fe  Fe6  1  0.00023200  0.50615300  0.34198700  1
  Co  Co7  1  0.50000000  0.33232000  0.11379000  1
  Cu  Cu8  1  0.50000000  0.50000000  1.00000000  1
  Ni  Ni9  1  0.50071200  0.50118800  0.44786600  1
  Sb  Sb10  1  0.00000000  0.00000000  0.00000000  1
  Sb  Sb11  1  0.50000000  0.00000000  0.11379000  1
  Sb  Sb12  1  0.49887900  0.99616600  0.34075900  1
  Sb  Sb13  1  0.00000000  0.66768000  0.00000000  1
  Sb  Sb14  1  0.50000000  0.66768000  0.11379000  1
  Sb  Sb15  1  0.00000000  0.66768000  0.22759000  1
  Sb  Sb16  1  0.50000000  0.16768000  1.00000000  1
  Sb  Sb17  1  0.00000000  0.16768000  0.11379000  1
  Sb  Sb18  1  0.50000000  0.16768000  0.22759000  1
  Sb  Sb19  1  0.99989200  0.17540900  0.33773400  1
  Sb  Sb20  1  0.50029600  0.19970600  0.46155700  1
  Sb  Sb21  1  0.50000000  0.83232000  1.00000000  1
  Sb  Sb22  1  0.00000000  0.83232000  0.11379000  1
  Sb  Sb23  1  0.50000000  0.83232000  0.22759000  1
  Sb  Sb24  1  0.99918300  0.82332900  0.33820100  1
  Sb  Sb25  1  0.50119300  0.81015600  0.45558400  1
  Sb  Sb26  1  0.00000000  0.33232000  0.00000000  1
  Sb  Sb27  1  0.00000000  0.33232000  0.22759000  1
  Sb  Sb28  1  0.50013100  0.34701000  0.34640200  1
  Sb  Sb29  1  0.99809100  0.34537800  0.45237000  1
  Cl  Cl30  1  0.50796400  0.40558000  0.52281000  1
  O  O31  1  0.00000000  0.82836000  0.04494000  1
  O  O32  1  0.50000000  0.82836000  0.15874000  1
  O  O33  1  0.99980400  0.84474300  0.27065200  1
  O  O34  1  0.49824600  0.82892500  0.38250800  1
  O  O35  1  0.50000000  0.82836000  0.06885000  1
  O  O36  1  0.00000000  0.82836000  0.18264000  1
  O  O37  1  0.50020000  0.83362500  0.29587400  1
  O  O38  1  0.99989500  0.85144500  0.40746700  1
  O  O39  1  0.30253000  0.32836000  1.00000000  1
  O  O40  1  0.80253000  0.32836000  0.11379000  1
  O  O41  1  0.30253000  0.32836000  0.22759000  1
  O  O42  1  0.80489500  0.33587100  0.33665000  1
  O  O43  1  0.30598700  0.33864200  0.43563600  1
  O  O44  1  0.69747000  0.32836000  1.00000000  1
  O  O45  1  0.19747000  0.32836000  0.11379000  1
  O  O46  1  0.69747000  0.32836000  0.22759000  1
  O  O47  1  0.19509000  0.33582000  0.33689100  1
  O  O48  1  0.69161000  0.33766300  0.43351800  1
  O  O49  1  0.30253000  0.67164000  1.00000000  1
  O  O50  1  0.80253000  0.67164000  0.11379000  1
  O  O51  1  0.30253000  0.67164000  0.22759000  1
  O  O52  1  0.80088700  0.66875300  0.33769200  1
  O  O53  1  0.29320000  0.66309200  0.45745500  1
  O  O54  1  0.69747000  0.67164000  1.00000000  1
  O  O55  1  0.19747000  0.67164000  0.11379000  1
  O  O56  1  0.69747000  0.67164000  0.22759000  1
  O  O57  1  0.19804400  0.66910000  0.33756000  1
  O  O58  1  0.70816500  0.66204100  0.45693800  1
  O  O59  1  0.00000000  0.17164000  0.04494000  1
  O  O60  1  0.50000000  0.17164000  0.15874000  1
  O  O61  1  0.99978400  0.15531300  0.27066400  1
  O  O62  1  0.49640200  0.15307500  0.38497700  1
  O  O63  1  0.50000000  0.17164000  0.06885000  1
  O  O64  1  0.00000000  0.17164000  0.18264000  1
  O  O65  1  0.49979300  0.16582600  0.29703000  1
  O  O66  1  0.00062000  0.16562500  0.40778400  1
  O  O67  1  0.00000000  0.50000000  0.04332000  1
  O  O68  1  0.50000000  0.50000000  0.15711000  1
  O  O69  1  0.99950800  0.50002000  0.27169600  1
  O  O70  1  0.49728200  0.52667700  0.38174900  1
  O  O71  1  0.50000000  0.50000000  0.07048000  1
  O  O72  1  0.00000000  0.50000000  0.18427000  1
  O  O73  1  0.49991500  0.50655900  0.29401000  1
  O  O74  1  0.00079600  0.49600300  0.40652300  1
  O  O75  1  0.30966000  1.00000000  1.00000000  1
  O  O76  1  0.80966000  0.00000000  0.11379000  1
  O  O77  1  0.30966000  1.00000000  0.22759000  1
  O  O78  1  0.80600200  0.00113500  0.33938200  1
  O  O79  1  0.21139000  0.01210400  0.47017900  1
  O  O80  1  0.69034000  0.00000000  1.00000000  1
  O  O81  1  0.19034000  1.00000000  0.11379000  1
  O  O82  1  0.69034000  0.00000000  0.22759000  1
  O  O83  1  0.19185300  0.00050300  0.33874400  1
  O  O84  1  0.79319700  0.01515800  0.47080500  1
