# generated using pymatgen
data_MgTiMnVZnCrFeCoCuNiSb20ClO54
_symmetry_space_group_name_H-M   'P 1'
_cell_length_a   6.81085200
_cell_length_b   9.54322500
_cell_length_c   28.95638900
_cell_angle_alpha   90.03249800
_cell_angle_beta   89.89256400
_cell_angle_gamma   89.96270700
_symmetry_Int_Tables_number   1
_chemical_formula_structural   MgTiMnVZnCrFeCoCuNiSb20ClO54
_chemical_formula_sum
'Mg1 Ti1 Mn1 V1 Zn1 Cr1 Fe1 Co1 Cu1 Ni1 Sb20 Cl1 O54'
_cell_volume   1882.08868210
_cell_formula_units_Z   1
loop_
 _symmetry_equiv_pos_site_id
 _symmetry_equiv_pos_as_xyz
  1  'x, y, z'
loop_
 _atom_site_type_symbol
 _atom_site_label
 _atom_site_symmetry_multiplicity
 _atom_site_fract_x
 _atom_site_fract_y
 _atom_site_fract_z
 _atom_site_occupancy
  Mg  Mg0  1  0.49946300  0.65878100  0.65734300  1
  Ti  Ti1  1  0.50000000  0.50000000  0.00000000  1
  Mn  Mn2  1  0.50000000  0.83232000  0.00000000  1
  V  V3  1  0.00981500  0.69625700  0.54664900  1
  Zn  Zn4  1  0.00000000  0.00000000  0.00000000  1
  Cr  Cr5  1  0.01035500  0.33493900  0.55213400  1
  Fe  Fe6  1  1.00000000  0.00000000  0.77241000  1
  Co  Co7  1  0.50000000  0.66768000  0.88621000  1
  Cu  Cu8  1  0.50000000  0.00000000  0.88621000  1
  Ni  Ni9  1  0.56767900  0.47535000  0.55356100  1
  Sb  Sb10  1  0.50323400  0.97556100  0.64888900  1
  Sb  Sb11  1  0.00823600  0.01230600  0.53925100  1
  Sb  Sb12  1  1.00000000  0.50000000  0.88621000  1
  Sb  Sb13  1  0.50000000  0.50000000  0.77241000  1
  Sb  Sb14  1  0.99252200  0.51082300  0.65192700  1
  Sb  Sb15  1  1.00000000  0.33232000  0.00000000  1
  Sb  Sb16  1  0.50000000  0.33232000  0.88621000  1
  Sb  Sb17  1  1.00000000  0.33232000  0.77241000  1
  Sb  Sb18  1  0.49955300  0.32896600  0.65744300  1
  Sb  Sb19  1  1.00000000  0.83232000  0.88621000  1
  Sb  Sb20  1  0.50000000  0.83232000  0.77241000  1
  Sb  Sb21  1  0.00278700  0.83296800  0.66061300  1
  Sb  Sb22  1  0.50207300  0.83392900  0.53623100  1
  Sb  Sb23  1  0.50000000  0.16768000  0.00000000  1
  Sb  Sb24  1  1.00000000  0.16768000  0.88621000  1
  Sb  Sb25  1  0.50000000  0.16768000  0.77241000  1
  Sb  Sb26  1  0.00586100  0.16280700  0.66047100  1
  Sb  Sb27  1  0.50528200  0.18365500  0.53663200  1
  Sb  Sb28  1  1.00000000  0.66768000  0.00000000  1
  Sb  Sb29  1  0.00000000  0.66768000  0.77241000  1
  Cl  Cl30  1  0.48512300  0.51373900  0.48509700  1
  O  O31  1  0.00000000  0.17164000  0.95506000  1
  O  O32  1  0.50000000  0.17164000  0.84126000  1
  O  O33  1  0.99980400  0.15525700  0.72934800  1
  O  O34  1  0.47270400  0.19437200  0.60598200  1
  O  O35  1  0.50000000  0.17164000  0.93115000  1
  O  O36  1  1.00000000  0.17164000  0.81736000  1
  O  O37  1  0.49518300  0.16849500  0.70290100  1
  O  O38  1  0.01523500  0.16924400  0.59030700  1
  O  O39  1  0.30253000  0.67164000  0.00000000  1
  O  O40  1  0.80253000  0.67164000  0.88621000  1
  O  O41  1  0.30253000  0.67164000  0.77241000  1
  O  O42  1  0.80609000  0.68315200  0.65805800  1
  O  O43  1  0.20146800  0.74328500  0.51497300  1
  O  O44  1  0.69747000  0.67164000  0.00000000  1
  O  O45  1  0.19747000  0.67164000  0.88621000  1
  O  O46  1  0.69747000  0.67164000  0.77241000  1
  O  O47  1  0.19116000  0.67559200  0.65793200  1
  O  O48  1  0.81426800  0.73243900  0.51541300  1
  O  O49  1  0.30253000  0.32836000  0.00000000  1
  O  O50  1  0.80253000  0.32836000  0.88621000  1
  O  O51  1  0.30253000  0.32836000  0.77241000  1
  O  O52  1  0.79547500  0.30657400  0.66213200  1
  O  O53  1  0.15084900  0.27557500  0.51093800  1
  O  O54  1  0.69747000  0.32836000  0.00000000  1
  O  O55  1  0.19747000  0.32836000  0.88621000  1
  O  O56  1  0.69747000  0.32836000  0.77241000  1
  O  O57  1  0.19980000  0.31878900  0.66309300  1
  O  O58  1  0.75835200  0.32999500  0.54665500  1
  O  O59  1  0.00000000  0.82836000  0.95506000  1
  O  O60  1  0.50000000  0.82836000  0.84126000  1
  O  O61  1  0.99978400  0.84468700  0.72933600  1
  O  O62  1  0.49854700  0.79704100  0.60368200  1
  O  O63  1  0.50000000  0.82836000  0.93115000  1
  O  O64  1  1.00000000  0.82836000  0.81736000  1
  O  O65  1  0.49719900  0.82651300  0.70314600  1
  O  O66  1  0.00239900  0.84487700  0.58894800  1
  O  O67  1  1.00000000  0.50000000  0.95668000  1
  O  O68  1  0.50000000  0.50000000  0.84289000  1
  O  O69  1  0.99950800  0.49998000  0.72830400  1
  O  O70  1  0.51346900  0.48948300  0.61542800  1
  O  O71  1  0.50000000  0.50000000  0.92952000  1
  O  O72  1  1.00000000  0.50000000  0.81573000  1
  O  O73  1  0.49959700  0.48993000  0.70268100  1
  O  O74  1  0.03379100  0.52255200  0.56857700  1
  O  O75  1  0.30966000  1.00000000  0.00000000  1
  O  O76  1  0.80966000  0.00000000  0.88621000  1
  O  O77  1  0.30966000  1.00000000  0.77241000  1
  O  O78  1  0.82171400  0.99799800  0.65845900  1
  O  O79  1  0.31470100  0.00631100  0.54972500  1
  O  O80  1  0.69034000  0.00000000  0.00000000  1
  O  O81  1  0.19034000  1.00000000  0.88621000  1
  O  O82  1  0.69034000  1.00000000  0.77241000  1
  O  O83  1  0.18918300  0.99561600  0.65891300  1
  O  O84  1  0.69031200  0.01311500  0.55073800  1
