# generated using pymatgen
data_MgTiMnVZnCrFeCoCuNiSb20ClO54
_symmetry_space_group_name_H-M   'P 1'
_cell_length_a   6.79289800
_cell_length_b   9.70581800
_cell_length_c   29.73042000
_cell_angle_alpha   90.25779800
_cell_angle_beta   89.96503600
_cell_angle_gamma   89.90775400
_symmetry_Int_Tables_number   1
_chemical_formula_structural   MgTiMnVZnCrFeCoCuNiSb20ClO54
_chemical_formula_sum
'Mg1 Ti1 Mn1 V1 Zn1 Cr1 Fe1 Co1 Cu1 Ni1 Sb20 Cl1 O54'
_cell_volume   1960.12261527
_cell_formula_units_Z   1
loop_
 _symmetry_equiv_pos_site_id
 _symmetry_equiv_pos_as_xyz
  1  'x, y, z'
loop_
 _atom_site_type_symbol
 _atom_site_label
 _atom_site_symmetry_multiplicity
 _atom_site_fract_x
 _atom_site_fract_y
 _atom_site_fract_z
 _atom_site_occupancy
  Mg  Mg0  1  0.00000000  0.33232000  0.77241000  1
  Ti  Ti1  1  0.98009300  0.18309000  0.66647900  1
  Mn  Mn2  1  0.98305400  0.00599200  0.57093900  1
  V  V3  1  0.47156200  0.98510100  0.65896800  1
  Zn  Zn4  1  0.33948300  0.18157000  0.56920300  1
  Cr  Cr5  1  0.97581500  0.34411300  0.56742300  1
  Fe  Fe6  1  0.00821500  0.52472600  0.66581100  1
  Co  Co7  1  0.00000000  0.83232000  0.88621000  1
  Cu  Cu8  1  0.50172300  0.65559100  0.65498000  1
  Ni  Ni9  1  0.54666200  0.51235100  0.55644300  1
  Sb  Sb10  1  0.00000000  0.00000000  0.00000000  1
  Sb  Sb11  1  0.50000000  1.00000000  0.88621000  1
  Sb  Sb12  1  0.00000000  0.00000000  0.77241000  1
  Sb  Sb13  1  0.50000000  0.50000000  1.00000000  1
  Sb  Sb14  1  1.00000000  0.50000000  0.88621000  1
  Sb  Sb15  1  0.50000000  0.50000000  0.77241000  1
  Sb  Sb16  1  0.00000000  0.33232000  1.00000000  1
  Sb  Sb17  1  0.50000000  0.33232000  0.88621000  1
  Sb  Sb18  1  0.49211300  0.32507100  0.66311800  1
  Sb  Sb19  1  0.50000000  0.83232000  1.00000000  1
  Sb  Sb20  1  0.50000000  0.83232000  0.77241000  1
  Sb  Sb21  1  0.99740500  0.82984500  0.65954000  1
  Sb  Sb22  1  0.52815400  0.81022200  0.54507500  1
  Sb  Sb23  1  0.50000000  0.16768000  1.00000000  1
  Sb  Sb24  1  0.00000000  0.16768000  0.88621000  1
  Sb  Sb25  1  0.50000000  0.16768000  0.77241000  1
  Sb  Sb26  1  0.00000000  0.66768000  1.00000000  1
  Sb  Sb27  1  0.50000000  0.66768000  0.88621000  1
  Sb  Sb28  1  1.00000000  0.66768000  0.77241000  1
  Sb  Sb29  1  0.03954100  0.65565300  0.55121300  1
  Cl  Cl30  1  0.51952200  0.58083900  0.48433000  1
  O  O31  1  0.00000000  0.17164000  0.95506000  1
  O  O32  1  0.50000000  0.17164000  0.84126000  1
  O  O33  1  0.99980400  0.15525700  0.72934800  1
  O  O34  1  0.49660200  0.15623200  0.62155900  1
  O  O35  1  0.50000000  0.17164000  0.93115000  1
  O  O36  1  0.00000000  0.17164000  0.81736000  1
  O  O37  1  0.50026400  0.15451900  0.70510200  1
  O  O38  1  0.96748300  0.18363900  0.59670200  1
  O  O39  1  0.30253000  0.67164000  1.00000000  1
  O  O40  1  0.80253000  0.67164000  0.88621000  1
  O  O41  1  0.30253000  0.67164000  0.77241000  1
  O  O42  1  0.80547000  0.67497900  0.66288000  1
  O  O43  1  0.33868500  0.65918500  0.56954300  1
  O  O44  1  0.69747000  0.67164000  1.00000000  1
  O  O45  1  0.19747000  0.67164000  0.88621000  1
  O  O46  1  0.69747000  0.67164000  0.77241000  1
  O  O47  1  0.19840900  0.67875600  0.66429900  1
  O  O48  1  0.72463400  0.67171700  0.56705400  1
  O  O49  1  0.30253000  0.32836000  1.00000000  1
  O  O50  1  0.80253000  0.32836000  0.88621000  1
  O  O51  1  0.30253000  0.32836000  0.77241000  1
  O  O52  1  0.79467900  0.31781400  0.66678400  1
  O  O53  1  0.18922700  0.32622100  0.53854400  1
  O  O54  1  0.69747000  0.32836000  1.00000000  1
  O  O55  1  0.19747000  0.32836000  0.88621000  1
  O  O56  1  0.69747000  0.32836000  0.77241000  1
  O  O57  1  0.19152500  0.31026700  0.66315300  1
  O  O58  1  0.76197800  0.37705200  0.54348300  1
  O  O59  1  1.00000000  0.82836000  0.95506000  1
  O  O60  1  0.50000000  0.82836000  0.84126000  1
  O  O61  1  0.99978400  0.84468700  0.72933600  1
  O  O62  1  0.50824200  0.87612200  0.61509600  1
  O  O63  1  0.50000000  0.82836000  0.93115000  1
  O  O64  1  0.00000000  0.82836000  0.81736000  1
  O  O65  1  0.51400400  0.86102900  0.70280500  1
  O  O66  1  0.03048400  0.82600600  0.59223600  1
  O  O67  1  0.00000000  0.50000000  0.95668000  1
  O  O68  1  0.50000000  0.50000000  0.84289000  1
  O  O69  1  0.99950800  0.49998000  0.72830400  1
  O  O70  1  0.49836800  0.46894800  0.61835700  1
  O  O71  1  0.50000000  0.50000000  0.92952000  1
  O  O72  1  0.00000000  0.50000000  0.81573000  1
  O  O73  1  0.49174800  0.49125100  0.70535500  1
  O  O74  1  0.01776500  0.49954900  0.59921300  1
  O  O75  1  0.30966000  0.00000000  1.00000000  1
  O  O76  1  0.80966000  1.00000000  0.88621000  1
  O  O77  1  0.30966000  0.00000000  0.77241000  1
  O  O78  1  0.83238200  0.00241600  0.65625400  1
  O  O79  1  0.20883000  0.02194200  0.54490000  1
  O  O80  1  0.69034000  0.00000000  0.00000000  1
  O  O81  1  0.19034000  0.00000000  0.88621000  1
  O  O82  1  0.69034000  1.00000000  0.77241000  1
  O  O83  1  0.20784700  0.99520100  0.65981900  1
  O  O84  1  0.78000900  0.97431300  0.54098500  1
