# generated using pymatgen
data_MgTiMnVZnCrFeCoCuNiSb20ClO54
_symmetry_space_group_name_H-M   'P 1'
_cell_length_a   6.66068000
_cell_length_b   9.55807800
_cell_length_c   29.47964000
_cell_angle_alpha   90.07296200
_cell_angle_beta   89.94958600
_cell_angle_gamma   89.94911100
_symmetry_Int_Tables_number   1
_chemical_formula_structural   MgTiMnVZnCrFeCoCuNiSb20ClO54
_chemical_formula_sum
'Mg1 Ti1 Mn1 V1 Zn1 Cr1 Fe1 Co1 Cu1 Ni1 Sb20 Cl1 O54'
_cell_volume   1876.76814460
_cell_formula_units_Z   1
loop_
 _symmetry_equiv_pos_site_id
 _symmetry_equiv_pos_as_xyz
  1  'x, y, z'
loop_
 _atom_site_type_symbol
 _atom_site_label
 _atom_site_symmetry_multiplicity
 _atom_site_fract_x
 _atom_site_fract_y
 _atom_site_fract_z
 _atom_site_occupancy
  Mg  Mg0  1  0.49901800  0.83945300  0.55041200  1
  Ti  Ti1  1  0.00274900  0.50546600  0.66492400  1
  Mn  Mn2  1  1.00000000  0.33232000  0.00000000  1
  V  V3  1  0.50153700  0.66568200  0.65842100  1
  Zn  Zn4  1  0.50000000  0.50000000  0.77241000  1
  Cr  Cr5  1  0.00000000  0.16768000  0.88621000  1
  Fe  Fe6  1  0.50000000  0.83232000  0.00000000  1
  Co  Co7  1  0.49840000  0.17238700  0.55281200  1
  Cu  Cu8  1  0.00000000  0.66768000  0.77241000  1
  Ni  Ni9  1  0.50032600  0.50733900  0.54952900  1
  Sb  Sb10  1  0.00000000  0.00000000  0.00000000  1
  Sb  Sb11  1  0.50000000  0.00000000  0.88621000  1
  Sb  Sb12  1  1.00000000  0.00000000  0.77241000  1
  Sb  Sb13  1  0.50008100  0.99084600  0.66010500  1
  Sb  Sb14  1  0.00141500  0.00329300  0.53799800  1
  Sb  Sb15  1  0.50000000  0.50000000  0.00000000  1
  Sb  Sb16  1  0.00000000  0.50000000  0.88621000  1
  Sb  Sb17  1  0.50000000  0.33232000  0.88621000  1
  Sb  Sb18  1  1.00000000  0.33232000  0.77241000  1
  Sb  Sb19  1  0.50358100  0.35150300  0.64549900  1
  Sb  Sb20  1  0.99555800  0.35315100  0.54441600  1
  Sb  Sb21  1  0.00000000  0.83232000  0.88621000  1
  Sb  Sb22  1  0.50000000  0.83232000  0.77241000  1
  Sb  Sb23  1  0.99970900  0.82964700  0.66112500  1
  Sb  Sb24  1  0.50000000  0.16768000  0.00000000  1
  Sb  Sb25  1  0.50000000  0.16768000  0.77241000  1
  Sb  Sb26  1  0.00061600  0.18053900  0.65392400  1
  Sb  Sb27  1  0.00000000  0.66768000  0.00000000  1
  Sb  Sb28  1  0.50000000  0.66768000  0.88621000  1
  Sb  Sb29  1  0.00055200  0.67393600  0.54628300  1
  Cl  Cl30  1  0.50364600  0.45412600  0.47906900  1
  O  O31  1  1.00000000  0.17164000  0.95506000  1
  O  O32  1  0.50000000  0.17164000  0.84126000  1
  O  O33  1  0.99980400  0.15525700  0.72934800  1
  O  O34  1  0.50312500  0.14784300  0.61787400  1
  O  O35  1  0.50000000  0.17164000  0.93115000  1
  O  O36  1  1.00000000  0.17164000  0.81736000  1
  O  O37  1  0.49958400  0.15647900  0.70466600  1
  O  O38  1  0.99848400  0.17300200  0.58110100  1
  O  O39  1  0.30253000  0.67164000  1.00000000  1
  O  O40  1  0.80253000  0.67164000  0.88621000  1
  O  O41  1  0.30253000  0.67164000  0.77241000  1
  O  O42  1  0.80360700  0.67285000  0.66082900  1
  O  O43  1  0.30844000  0.65996800  0.54175000  1
  O  O44  1  0.69747000  0.67164000  1.00000000  1
  O  O45  1  0.19747000  0.67164000  0.88621000  1
  O  O46  1  0.69747000  0.67164000  0.77241000  1
  O  O47  1  0.19666200  0.67330900  0.66099900  1
  O  O48  1  0.69286300  0.66067800  0.54211400  1
  O  O49  1  0.30253000  0.32836000  1.00000000  1
  O  O50  1  0.80253000  0.32836000  0.88621000  1
  O  O51  1  0.30253000  0.32836000  0.77241000  1
  O  O52  1  0.81205200  0.36023500  0.66065300  1
  O  O53  1  0.32084100  0.33361800  0.55949700  1
  O  O54  1  0.69747000  0.32836000  1.00000000  1
  O  O55  1  0.19747000  0.32836000  0.88621000  1
  O  O56  1  0.69747000  0.32836000  0.77241000  1
  O  O57  1  0.19010800  0.35970600  0.66057400  1
  O  O58  1  0.67792400  0.33937800  0.56245000  1
  O  O59  1  0.00000000  0.82836000  0.95506000  1
  O  O60  1  0.50000000  0.82836000  0.84126000  1
  O  O61  1  0.99978400  0.84468700  0.72933600  1
  O  O62  1  0.50040400  0.83080000  0.61866800  1
  O  O63  1  0.50000000  0.82836000  0.93115000  1
  O  O64  1  1.00000000  0.82836000  0.81736000  1
  O  O65  1  0.49978800  0.83324000  0.70428800  1
  O  O66  1  0.99734600  0.84326900  0.59141100  1
  O  O67  1  0.00000000  0.50000000  0.95668000  1
  O  O68  1  0.50000000  0.50000000  0.84289000  1
  O  O69  1  0.99950800  0.49998000  0.72830400  1
  O  O70  1  0.49891500  0.55184600  0.61238600  1
  O  O71  1  0.50000000  0.50000000  0.92952000  1
  O  O72  1  1.00000000  0.50000000  0.81573000  1
  O  O73  1  0.50167000  0.52775200  0.69705900  1
  O  O74  1  0.00236600  0.51128500  0.59165500  1
  O  O75  1  0.30966000  1.00000000  1.00000000  1
  O  O76  1  0.80966000  0.00000000  0.88621000  1
  O  O77  1  0.30966000  1.00000000  0.77241000  1
  O  O78  1  0.80330800  0.99035700  0.66161300  1
  O  O79  1  0.31090900  0.02146700  0.54242200  1
  O  O80  1  0.69034000  0.00000000  1.00000000  1
  O  O81  1  0.19034000  1.00000000  0.88621000  1
  O  O82  1  0.69034000  1.00000000  0.77241000  1
  O  O83  1  0.19679200  0.99005600  0.66134400  1
  O  O84  1  0.68341600  0.02661800  0.54225900  1
