# generated using pymatgen
data_MgTiMnVZnCrFeCoCuNiSb20ClO54
_symmetry_space_group_name_H-M   'P 1'
_cell_length_a   6.65934400
_cell_length_b   9.54061200
_cell_length_c   29.58112700
_cell_angle_alpha   90.13243000
_cell_angle_beta   89.90675300
_cell_angle_gamma   89.93149500
_symmetry_Int_Tables_number   1
_chemical_formula_structural   MgTiMnVZnCrFeCoCuNiSb20ClO54
_chemical_formula_sum
'Mg1 Ti1 Mn1 V1 Zn1 Cr1 Fe1 Co1 Cu1 Ni1 Sb20 Cl1 O54'
_cell_volume   1879.40488920
_cell_formula_units_Z   1
loop_
 _symmetry_equiv_pos_site_id
 _symmetry_equiv_pos_as_xyz
  1  'x, y, z'
loop_
 _atom_site_type_symbol
 _atom_site_label
 _atom_site_symmetry_multiplicity
 _atom_site_fract_x
 _atom_site_fract_y
 _atom_site_fract_z
 _atom_site_occupancy
  Mg  Mg0  1  0.49936400  0.00172200  0.33600000  1
  Ti  Ti1  1  0.49347300  0.17687900  0.44046700  1
  Mn  Mn2  1  1.00000000  0.33232000  0.00000000  1
  V  V3  1  0.99846000  0.49014300  0.33471000  1
  Zn  Zn4  1  0.00000000  0.16768000  0.11379000  1
  Cr  Cr5  1  0.00205900  0.65039200  0.42807300  1
  Fe  Fe6  1  1.00000000  0.66768000  0.22759000  1
  Co  Co7  1  0.50000000  0.16768000  0.22759000  1
  Cu  Cu8  1  0.50000000  0.83232000  0.00000000  1
  Ni  Ni9  1  0.50262600  0.48601700  0.45028300  1
  Sb  Sb10  1  0.00000000  0.00000000  0.00000000  1
  Sb  Sb11  1  0.50000000  1.00000000  0.11379000  1
  Sb  Sb12  1  1.00000000  0.00000000  0.22759000  1
  Sb  Sb13  1  0.00402500  0.98611000  0.45996900  1
  Sb  Sb14  1  0.50000000  0.50000000  0.00000000  1
  Sb  Sb15  1  0.00000000  0.50000000  0.11379000  1
  Sb  Sb16  1  0.50000000  0.50000000  0.22759000  1
  Sb  Sb17  1  0.50000000  0.33232000  0.11379000  1
  Sb  Sb18  1  0.00000000  0.33232000  0.22759000  1
  Sb  Sb19  1  0.49888500  0.33346500  0.33580500  1
  Sb  Sb20  1  0.99466700  0.34933300  0.45865300  1
  Sb  Sb21  1  0.00000000  0.83232000  0.11379000  1
  Sb  Sb22  1  0.50000000  0.83232000  0.22759000  1
  Sb  Sb23  1  0.00114700  0.83379400  0.33822600  1
  Sb  Sb24  1  0.51305800  0.83051800  0.45567800  1
  Sb  Sb25  1  0.50000000  0.16768000  0.00000000  1
  Sb  Sb26  1  0.99826800  0.15673800  0.34525300  1
  Sb  Sb27  1  0.00000000  0.66768000  0.00000000  1
  Sb  Sb28  1  0.50000000  0.66768000  0.11379000  1
  Sb  Sb29  1  0.50022400  0.67170000  0.34350000  1
  Cl  Cl30  1  0.50085600  0.50778000  0.52358500  1
  O  O31  1  0.00000000  0.17164000  0.04494000  1
  O  O32  1  0.50000000  0.17164000  0.15874000  1
  O  O33  1  0.00019600  0.15525700  0.27065200  1
  O  O34  1  0.49945000  0.17302100  0.37845300  1
  O  O35  1  0.50000000  0.17164000  0.06885000  1
  O  O36  1  1.00000000  0.17164000  0.18264000  1
  O  O37  1  0.49801900  0.17537000  0.29306600  1
  O  O38  1  0.99752700  0.16219900  0.42197900  1
  O  O39  1  0.69747000  0.67164000  0.00000000  1
  O  O40  1  0.19747000  0.67164000  0.11379000  1
  O  O41  1  0.69747000  0.67164000  0.22759000  1
  O  O42  1  0.18740700  0.66447300  0.34150600  1
  O  O43  1  0.75267200  0.65903800  0.44948500  1
  O  O44  1  0.30253000  0.67164000  0.00000000  1
  O  O45  1  0.80253000  0.67164000  0.11379000  1
  O  O46  1  0.30253000  0.67164000  0.22759000  1
  O  O47  1  0.81235300  0.66581200  0.34054800  1
  O  O48  1  0.22886500  0.64109300  0.45197700  1
  O  O49  1  0.69747000  0.32836000  0.00000000  1
  O  O50  1  0.19747000  0.32836000  0.11379000  1
  O  O51  1  0.69747000  0.32836000  0.22759000  1
  O  O52  1  0.19373500  0.35472800  0.33585900  1
  O  O53  1  0.68703500  0.31638300  0.44925000  1
  O  O54  1  0.30253000  0.32836000  0.00000000  1
  O  O55  1  0.80253000  0.32836000  0.11379000  1
  O  O56  1  0.30253000  0.32836000  0.22759000  1
  O  O57  1  0.80340000  0.35348800  0.33420900  1
  O  O58  1  0.30899000  0.31987300  0.44779300  1
  O  O59  1  1.00000000  0.82836000  0.04494000  1
  O  O60  1  0.50000000  0.82836000  0.15874000  1
  O  O61  1  0.00021600  0.84468700  0.27066400  1
  O  O62  1  0.49546800  0.82883900  0.38687700  1
  O  O63  1  0.50000000  0.82836000  0.06885000  1
  O  O64  1  0.00000000  0.82836000  0.18264000  1
  O  O65  1  0.49748100  0.82444200  0.29611000  1
  O  O66  1  0.99923800  0.84159600  0.40752600  1
  O  O67  1  0.00000000  0.50000000  0.04332000  1
  O  O68  1  0.50000000  0.50000000  0.15711000  1
  O  O69  1  0.00049200  0.49998000  0.27169600  1
  O  O70  1  0.50090100  0.49662400  0.38219400  1
  O  O71  1  0.50000000  0.50000000  0.07048000  1
  O  O72  1  0.00000000  0.50000000  0.18427000  1
  O  O73  1  0.49759000  0.51125600  0.29591900  1
  O  O74  1  0.98832000  0.47398000  0.40159700  1
  O  O75  1  0.69034000  0.00000000  0.00000000  1
  O  O76  1  0.19034000  1.00000000  0.11379000  1
  O  O77  1  0.69034000  0.00000000  0.22759000  1
  O  O78  1  0.19631000  0.98940500  0.34010600  1
  O  O79  1  0.68697800  0.00889800  0.45124800  1
  O  O80  1  0.30966000  0.00000000  0.00000000  1
  O  O81  1  0.80966000  1.00000000  0.11379000  1
  O  O82  1  0.30966000  0.00000000  0.22759000  1
  O  O83  1  0.80260700  0.98813600  0.34019100  1
  O  O84  1  0.31545000  0.01422200  0.45138900  1
