# generated using pymatgen
data_MgTiMnVZnCrFeCoCuNiSb20ClO54
_symmetry_space_group_name_H-M   'P 1'
_cell_length_a   6.70582000
_cell_length_b   9.44809500
_cell_length_c   29.36607300
_cell_angle_alpha   90.09072900
_cell_angle_beta   89.98789800
_cell_angle_gamma   89.99791600
_symmetry_Int_Tables_number   1
_chemical_formula_structural   MgTiMnVZnCrFeCoCuNiSb20ClO54
_chemical_formula_sum
'Mg1 Ti1 Mn1 V1 Zn1 Cr1 Fe1 Co1 Cu1 Ni1 Sb20 Cl1 O54'
_cell_volume   1860.55050173
_cell_formula_units_Z   1
loop_
 _symmetry_equiv_pos_site_id
 _symmetry_equiv_pos_as_xyz
  1  'x, y, z'
loop_
 _atom_site_type_symbol
 _atom_site_label
 _atom_site_symmetry_multiplicity
 _atom_site_fract_x
 _atom_site_fract_y
 _atom_site_fract_z
 _atom_site_occupancy
  Mg  Mg0  1  0.50000000  0.83232000  1.00000000  1
  Ti  Ti1  1  0.50027700  0.34976400  0.65838900  1
  Mn  Mn2  1  0.00000000  0.83232000  0.88621000  1
  V  V3  1  0.50000000  0.00000000  0.88621000  1
  Zn  Zn4  1  0.50000000  0.50000000  1.00000000  1
  Cr  Cr5  1  0.00000000  0.33232000  0.77241000  1
  Fe  Fe6  1  0.49985600  0.66115700  0.65565100  1
  Co  Co7  1  0.99784800  0.00517900  0.55913100  1
  Cu  Cu8  1  0.00000000  1.00000000  0.77241000  1
  Ni  Ni9  1  0.49760200  0.50006800  0.55435600  1
  Sb  Sb10  1  0.00000000  0.00000000  0.00000000  1
  Sb  Sb11  1  0.50072700  0.00082800  0.65878200  1
  Sb  Sb12  1  0.00000000  0.50000000  0.88621000  1
  Sb  Sb13  1  0.50000000  0.50000000  0.77241000  1
  Sb  Sb14  1  0.99961800  0.50085200  0.65927300  1
  Sb  Sb15  1  0.00000000  0.66768000  0.00000000  1
  Sb  Sb16  1  0.50000000  0.66768000  0.88621000  1
  Sb  Sb17  1  0.00000000  0.66768000  0.77241000  1
  Sb  Sb18  1  0.00093900  0.66771800  0.54526400  1
  Sb  Sb19  1  0.50000000  0.16768000  1.00000000  1
  Sb  Sb20  1  0.00000000  0.16768000  0.88621000  1
  Sb  Sb21  1  0.50000000  0.16768000  0.77241000  1
  Sb  Sb22  1  0.00040900  0.17157100  0.66396100  1
  Sb  Sb23  1  0.49851700  0.17559800  0.54375200  1
  Sb  Sb24  1  0.50000000  0.83232000  0.77241000  1
  Sb  Sb25  1  0.99999700  0.82730300  0.66140900  1
  Sb  Sb26  1  0.49875500  0.81880000  0.54353500  1
  Sb  Sb27  1  0.00000000  0.33232000  0.00000000  1
  Sb  Sb28  1  0.50000000  0.33232000  0.88621000  1
  Sb  Sb29  1  0.99968000  0.32110700  0.54456700  1
  Cl  Cl30  1  0.48308300  0.51849300  0.47969100  1
  O  O31  1  0.00000000  0.82836000  0.95506000  1
  O  O32  1  0.50000000  0.82836000  0.84126000  1
  O  O33  1  0.00019600  0.84474300  0.72934800  1
  O  O34  1  0.50329800  0.84239400  0.61496500  1
  O  O35  1  0.50000000  0.82836000  0.93115000  1
  O  O36  1  0.00000000  0.82836000  0.81736000  1
  O  O37  1  0.49979200  0.83344000  0.70242500  1
  O  O38  1  0.99693900  0.82770900  0.59307000  1
  O  O39  1  0.69747000  0.32836000  1.00000000  1
  O  O40  1  0.19747000  0.32836000  0.88621000  1
  O  O41  1  0.69747000  0.32836000  0.77241000  1
  O  O42  1  0.19706500  0.33960900  0.66187700  1
  O  O43  1  0.69125000  0.34118700  0.55394200  1
  O  O44  1  0.30253000  0.32836000  1.00000000  1
  O  O45  1  0.80253000  0.32836000  0.88621000  1
  O  O46  1  0.30253000  0.32836000  0.77241000  1
  O  O47  1  0.80317700  0.33922200  0.66229500  1
  O  O48  1  0.30524300  0.33957700  0.55629400  1
  O  O49  1  0.69747000  0.67164000  1.00000000  1
  O  O50  1  0.19747000  0.67164000  0.88621000  1
  O  O51  1  0.69747000  0.67164000  0.77241000  1
  O  O52  1  0.19740000  0.65989800  0.66176700  1
  O  O53  1  0.69369300  0.65969800  0.55869100  1
  O  O54  1  0.30253000  0.67164000  1.00000000  1
  O  O55  1  0.80253000  0.67164000  0.88621000  1
  O  O56  1  0.30253000  0.67164000  0.77241000  1
  O  O57  1  0.80246400  0.66036600  0.66208500  1
  O  O58  1  0.30569300  0.65981400  0.56164900  1
  O  O59  1  0.00000000  0.17164000  0.95506000  1
  O  O60  1  0.50000000  0.17164000  0.84126000  1
  O  O61  1  0.00021600  0.15531300  0.72933600  1
  O  O62  1  0.50133000  0.16806500  0.61677100  1
  O  O63  1  0.50000000  0.17164000  0.93115000  1
  O  O64  1  0.00000000  0.17164000  0.81736000  1
  O  O65  1  0.49987700  0.16930200  0.70236400  1
  O  O66  1  0.99577200  0.17545000  0.59620900  1
  O  O67  1  0.00000000  0.50000000  0.95668000  1
  O  O68  1  0.50000000  0.50000000  0.84289000  1
  O  O69  1  0.00049200  0.50002000  0.72830400  1
  O  O70  1  0.50458000  0.48986600  0.61769000  1
  O  O71  1  0.50000000  0.50000000  0.92952000  1
  O  O72  1  1.00000000  0.50000000  0.81573000  1
  O  O73  1  0.49973300  0.49431100  0.70381500  1
  O  O74  1  0.99730300  0.49616700  0.59059200  1
  O  O75  1  0.69034000  0.00000000  1.00000000  1
  O  O76  1  0.19034000  0.00000000  0.88621000  1
  O  O77  1  0.69034000  0.00000000  0.77241000  1
  O  O78  1  0.19449800  0.00026000  0.65908800  1
  O  O79  1  0.73939400  0.00636800  0.54523800  1
  O  O80  1  0.30966000  0.00000000  1.00000000  1
  O  O81  1  0.80966000  0.00000000  0.88621000  1
  O  O82  1  0.30966000  0.00000000  0.77241000  1
  O  O83  1  0.80655500  0.00043700  0.65950500  1
  O  O84  1  0.25601900  0.00595500  0.54533100  1
