# generated using pymatgen
data_MgTiMnVZnCrFeCoCuNiSb20ClO54
_symmetry_space_group_name_H-M   'P 1'
_cell_length_a   6.74147300
_cell_length_b   9.62474900
_cell_length_c   29.29155100
_cell_angle_alpha   89.94062400
_cell_angle_beta   89.90420500
_cell_angle_gamma   89.79560600
_symmetry_Int_Tables_number   1
_chemical_formula_structural   MgTiMnVZnCrFeCoCuNiSb20ClO54
_chemical_formula_sum
'Mg1 Ti1 Mn1 V1 Zn1 Cr1 Fe1 Co1 Cu1 Ni1 Sb20 Cl1 O54'
_cell_volume   1900.56610374
_cell_formula_units_Z   1
loop_
 _symmetry_equiv_pos_site_id
 _symmetry_equiv_pos_as_xyz
  1  'x, y, z'
loop_
 _atom_site_type_symbol
 _atom_site_label
 _atom_site_symmetry_multiplicity
 _atom_site_fract_x
 _atom_site_fract_y
 _atom_site_fract_z
 _atom_site_occupancy
  Mg  Mg0  1  0.00000000  0.33232000  0.22759000  1
  Ti  Ti1  1  0.97896700  0.18044300  0.33515500  1
  Mn  Mn2  1  0.47909900  0.33341200  0.33884000  1
  V  V3  1  0.00000000  0.16768000  0.11379000  1
  Zn  Zn4  1  0.50000000  0.50000000  0.22759000  1
  Cr  Cr5  1  0.48162900  0.80886500  0.44419500  1
  Fe  Fe6  1  0.09223200  0.00619200  0.43007200  1
  Co  Co7  1  0.00000000  0.00000000  0.00000000  1
  Cu  Cu8  1  0.00000000  0.66768000  0.22759000  1
  Ni  Ni9  1  0.50486000  0.48986800  0.44542400  1
  Sb  Sb10  1  0.50000000  0.00000000  0.11379000  1
  Sb  Sb11  1  0.00000000  0.00000000  0.22759000  1
  Sb  Sb12  1  0.48960900  0.00603700  0.34027000  1
  Sb  Sb13  1  0.50000000  0.50000000  1.00000000  1
  Sb  Sb14  1  0.00000000  0.50000000  0.11379000  1
  Sb  Sb15  1  0.00559600  0.49485100  0.33628700  1
  Sb  Sb16  1  0.00000000  0.66768000  0.00000000  1
  Sb  Sb17  1  0.50000000  0.66768000  0.11379000  1
  Sb  Sb18  1  0.50334300  0.64347200  0.34228300  1
  Sb  Sb19  1  0.89714600  0.68920100  0.45619000  1
  Sb  Sb20  1  0.50000000  0.16768000  1.00000000  1
  Sb  Sb21  1  0.50000000  0.16768000  0.22759000  1
  Sb  Sb22  1  0.53808100  0.17666400  0.45274600  1
  Sb  Sb23  1  0.50000000  0.83232000  1.00000000  1
  Sb  Sb24  1  0.00000000  0.83232000  0.11379000  1
  Sb  Sb25  1  0.50000000  0.83232000  0.22759000  1
  Sb  Sb26  1  0.99652500  0.83744400  0.33830300  1
  Sb  Sb27  1  0.00000000  0.33232000  0.00000000  1
  Sb  Sb28  1  0.50000000  0.33232000  0.11379000  1
  Sb  Sb29  1  0.00070300  0.33832200  0.45103500  1
  Cl  Cl30  1  0.67546600  0.52767300  0.51401000  1
  O  O31  1  0.00000000  0.82836000  0.04494000  1
  O  O32  1  0.50000000  0.82836000  0.15874000  1
  O  O33  1  0.99980400  0.84474300  0.27065200  1
  O  O34  1  0.48165100  0.84528500  0.38283000  1
  O  O35  1  0.50000000  0.82836000  0.06885000  1
  O  O36  1  0.00000000  0.82836000  0.18264000  1
  O  O37  1  0.50007200  0.84611600  0.29704300  1
  O  O38  1  0.99001600  0.83434800  0.40649200  1
  O  O39  1  0.30253000  0.32836000  0.00000000  1
  O  O40  1  0.80253000  0.32836000  0.11379000  1
  O  O41  1  0.30253000  0.32836000  0.22759000  1
  O  O42  1  0.79575400  0.32568600  0.33899500  1
  O  O43  1  0.33019500  0.32139900  0.45889000  1
  O  O44  1  0.69747000  0.32836000  1.00000000  1
  O  O45  1  0.19747000  0.32836000  0.11379000  1
  O  O46  1  0.69747000  0.32836000  0.22759000  1
  O  O47  1  0.18724300  0.31820000  0.33643900  1
  O  O48  1  0.70190300  0.34198400  0.43299200  1
  O  O49  1  0.30253000  0.67164000  0.00000000  1
  O  O50  1  0.80253000  0.67164000  0.11379000  1
  O  O51  1  0.30253000  0.67164000  0.22759000  1
  O  O52  1  0.81644500  0.67068800  0.33685400  1
  O  O53  1  0.32627500  0.68873800  0.46149800  1
  O  O54  1  0.69747000  0.67164000  1.00000000  1
  O  O55  1  0.19747000  0.67164000  0.11379000  1
  O  O56  1  0.69747000  0.67164000  0.22759000  1
  O  O57  1  0.18926500  0.67417500  0.33963300  1
  O  O58  1  0.64834900  0.65030200  0.42082900  1
  O  O59  1  0.00000000  0.17164000  0.04494000  1
  O  O60  1  0.50000000  0.17164000  0.15874000  1
  O  O61  1  0.99978400  0.15531300  0.27066400  1
  O  O62  1  0.48038900  0.16580700  0.38310900  1
  O  O63  1  0.50000000  0.17164000  0.06885000  1
  O  O64  1  0.00000000  0.17164000  0.18264000  1
  O  O65  1  0.49898000  0.16405900  0.29731700  1
  O  O66  1  0.00393800  0.17558900  0.40590400  1
  O  O67  1  0.00000000  0.50000000  0.04332000  1
  O  O68  1  0.50000000  0.50000000  0.15711000  1
  O  O69  1  0.99950800  0.50002000  0.27169600  1
  O  O70  1  0.43966900  0.46589500  0.38146000  1
  O  O71  1  0.50000000  0.50000000  0.07048000  1
  O  O72  1  0.00000000  0.50000000  0.18427000  1
  O  O73  1  0.49766600  0.47311800  0.29909700  1
  O  O74  1  0.01368500  0.50237600  0.40625200  1
  O  O75  1  0.30966000  1.00000000  0.00000000  1
  O  O76  1  0.80966000  0.00000000  0.11379000  1
  O  O77  1  0.30966000  1.00000000  0.22759000  1
  O  O78  1  0.79962300  0.00275000  0.34163800  1
  O  O79  1  0.34087700  0.97565000  0.45362800  1
  O  O80  1  0.69034000  0.00000000  1.00000000  1
  O  O81  1  0.19034000  1.00000000  0.11379000  1
  O  O82  1  0.69034000  0.00000000  0.22759000  1
  O  O83  1  0.18344200  0.00265200  0.34046800  1
  O  O84  1  0.69640900  0.85438500  0.47260500  1
