# generated using pymatgen
data_MgTiMnVZnCrFeCoCuNiSb20ClO54
_symmetry_space_group_name_H-M   'P 1'
_cell_length_a   6.66676300
_cell_length_b   9.50067900
_cell_length_c   29.73194500
_cell_angle_alpha   90.13475200
_cell_angle_beta   89.99062200
_cell_angle_gamma   89.97882300
_symmetry_Int_Tables_number   1
_chemical_formula_structural   MgTiMnVZnCrFeCoCuNiSb20ClO54
_chemical_formula_sum
'Mg1 Ti1 Mn1 V1 Zn1 Cr1 Fe1 Co1 Cu1 Ni1 Sb20 Cl1 O54'
_cell_volume   1883.17961924
_cell_formula_units_Z   1
loop_
 _symmetry_equiv_pos_site_id
 _symmetry_equiv_pos_as_xyz
  1  'x, y, z'
loop_
 _atom_site_type_symbol
 _atom_site_label
 _atom_site_symmetry_multiplicity
 _atom_site_fract_x
 _atom_site_fract_y
 _atom_site_fract_z
 _atom_site_occupancy
  Mg  Mg0  1  0.50000000  0.83232000  0.77241000  1
  Ti  Ti1  1  0.49860900  0.17422200  0.55826800  1
  Mn  Mn2  1  0.99972900  0.15691600  0.66492000  1
  V  V3  1  0.50000000  0.16768000  1.00000000  1
  Zn  Zn4  1  0.50000000  0.50000000  0.77241000  1
  Cr  Cr5  1  1.00000000  0.83232000  0.88621000  1
  Fe  Fe6  1  0.00057000  0.68188900  0.57114300  1
  Co  Co7  1  0.99973300  0.84397800  0.66759900  1
  Cu  Cu8  1  1.00000000  0.00000000  0.77241000  1
  Ni  Ni9  1  0.49689100  0.49591600  0.55166200  1
  Sb  Sb10  1  0.00000000  0.00000000  0.00000000  1
  Sb  Sb11  1  0.50000000  0.00000000  0.88621000  1
  Sb  Sb12  1  0.49969100  0.99648400  0.66305300  1
  Sb  Sb13  1  0.99830400  0.00239600  0.55106200  1
  Sb  Sb14  1  0.50000000  0.50000000  1.00000000  1
  Sb  Sb15  1  0.00000000  0.50000000  0.88621000  1
  Sb  Sb16  1  0.99924800  0.49742100  0.66010600  1
  Sb  Sb17  1  1.00000000  0.66768000  0.00000000  1
  Sb  Sb18  1  0.50000000  0.66768000  0.88621000  1
  Sb  Sb19  1  1.00000000  0.66768000  0.77241000  1
  Sb  Sb20  1  0.49954000  0.66497100  0.66047200  1
  Sb  Sb21  1  0.00000000  0.16768000  0.88621000  1
  Sb  Sb22  1  0.50000000  0.16768000  0.77241000  1
  Sb  Sb23  1  0.50000000  0.83232000  1.00000000  1
  Sb  Sb24  1  0.49961300  0.81987000  0.54398700  1
  Sb  Sb25  1  1.00000000  0.33232000  0.00000000  1
  Sb  Sb26  1  0.50000000  0.33232000  0.88621000  1
  Sb  Sb27  1  0.00000000  0.33232000  0.77241000  1
  Sb  Sb28  1  0.49961700  0.33876500  0.66171200  1
  Sb  Sb29  1  0.99838000  0.33208000  0.54646000  1
  Cl  Cl30  1  0.49737300  0.53109600  0.47927000  1
  O  O31  1  1.00000000  0.82836000  0.95506000  1
  O  O32  1  0.50000000  0.82836000  0.84126000  1
  O  O33  1  0.00019600  0.84474300  0.72934800  1
  O  O34  1  0.49977500  0.83246100  0.61621700  1
  O  O35  1  0.50000000  0.82836000  0.93115000  1
  O  O36  1  0.00000000  0.82836000  0.81736000  1
  O  O37  1  0.49941100  0.82777500  0.70232900  1
  O  O38  1  0.99986400  0.85369300  0.59930400  1
  O  O39  1  0.69747000  0.32836000  1.00000000  1
  O  O40  1  0.19747000  0.32836000  0.88621000  1
  O  O41  1  0.69747000  0.32836000  0.77241000  1
  O  O42  1  0.19018200  0.32758600  0.66314600  1
  O  O43  1  0.68349900  0.32336200  0.55318200  1
  O  O44  1  0.30253000  0.32836000  1.00000000  1
  O  O45  1  0.80253000  0.32836000  0.88621000  1
  O  O46  1  0.30253000  0.32836000  0.77241000  1
  O  O47  1  0.80919200  0.32749300  0.66339400  1
  O  O48  1  0.31191400  0.32302300  0.55388200  1
  O  O49  1  0.69747000  0.67164000  1.00000000  1
  O  O50  1  0.19747000  0.67164000  0.88621000  1
  O  O51  1  0.69747000  0.67164000  0.77241000  1
  O  O52  1  0.19264200  0.66153800  0.66145900  1
  O  O53  1  0.73323000  0.67013300  0.55823300  1
  O  O54  1  0.30253000  0.67164000  1.00000000  1
  O  O55  1  0.80253000  0.67164000  0.88621000  1
  O  O56  1  0.30253000  0.67164000  0.77241000  1
  O  O57  1  0.80672100  0.66196400  0.66149500  1
  O  O58  1  0.26978100  0.66670200  0.55907900  1
  O  O59  1  0.00000000  0.17164000  0.95506000  1
  O  O60  1  0.50000000  0.17164000  0.84126000  1
  O  O61  1  0.00021600  0.15531300  0.72933600  1
  O  O62  1  0.50009000  0.16943900  0.62184600  1
  O  O63  1  0.50000000  0.17164000  0.93115000  1
  O  O64  1  0.00000000  0.17164000  0.81736000  1
  O  O65  1  0.49928400  0.17515500  0.70448400  1
  O  O66  1  0.99805600  0.17125000  0.59399000  1
  O  O67  1  0.00000000  0.50000000  0.95668000  1
  O  O68  1  0.50000000  0.50000000  0.84289000  1
  O  O69  1  0.00049200  0.50002000  0.72830400  1
  O  O70  1  0.50137200  0.49704400  0.61743900  1
  O  O71  1  0.50000000  0.50000000  0.92952000  1
  O  O72  1  1.00000000  0.50000000  0.81573000  1
  O  O73  1  0.49902600  0.49975200  0.70369400  1
  O  O74  1  0.99644000  0.48937100  0.59315500  1
  O  O75  1  0.69034000  1.00000000  1.00000000  1
  O  O76  1  0.19034000  0.00000000  0.88621000  1
  O  O77  1  0.69034000  0.00000000  0.77241000  1
  O  O78  1  0.19703700  0.01056800  0.66227000  1
  O  O79  1  0.68309600  0.01802300  0.55282800  1
  O  O80  1  0.30966000  1.00000000  1.00000000  1
  O  O81  1  0.80966000  0.00000000  0.88621000  1
  O  O82  1  0.30966000  0.00000000  0.77241000  1
  O  O83  1  0.80227100  0.01027600  0.66250700  1
  O  O84  1  0.31364700  0.01845400  0.55290100  1
