# generated using pymatgen
data_MgTiMnVZnCrFeCoCuNiSb20ClO54
_symmetry_space_group_name_H-M   'P 1'
_cell_length_a   6.57767900
_cell_length_b   9.69167500
_cell_length_c   29.06705400
_cell_angle_alpha   89.88600800
_cell_angle_beta   89.96539200
_cell_angle_gamma   89.98619700
_symmetry_Int_Tables_number   1
_chemical_formula_structural   MgTiMnVZnCrFeCoCuNiSb20ClO54
_chemical_formula_sum
'Mg1 Ti1 Mn1 V1 Zn1 Cr1 Fe1 Co1 Cu1 Ni1 Sb20 Cl1 O54'
_cell_volume   1852.98363514
_cell_formula_units_Z   1
loop_
 _symmetry_equiv_pos_site_id
 _symmetry_equiv_pos_as_xyz
  1  'x, y, z'
loop_
 _atom_site_type_symbol
 _atom_site_label
 _atom_site_symmetry_multiplicity
 _atom_site_fract_x
 _atom_site_fract_y
 _atom_site_fract_z
 _atom_site_occupancy
  Mg  Mg0  1  0.99948700  0.83457500  0.33777300  1
  Ti  Ti1  1  0.00000000  0.00000000  0.00000000  1
  Mn  Mn2  1  0.99939600  0.66867200  0.44926800  1
  V  V3  1  0.99946200  0.19009200  0.33207600  1
  Zn  Zn4  1  0.00000000  0.66768000  1.00000000  1
  Cr  Cr5  1  0.50000000  0.83232000  0.22759000  1
  Fe  Fe6  1  0.50000000  0.50000000  1.00000000  1
  Co  Co7  1  0.00000000  0.33232000  0.22759000  1
  Cu  Cu8  1  0.00000000  0.16768000  0.11379000  1
  Ni  Ni9  1  0.49970400  0.49972400  0.45584100  1
  Sb  Sb10  1  0.50000000  1.00000000  0.11379000  1
  Sb  Sb11  1  0.00000000  0.00000000  0.22759000  1
  Sb  Sb12  1  0.50014800  0.00088300  0.34363000  1
  Sb  Sb13  1  0.00146000  0.00699800  0.42016900  1
  Sb  Sb14  1  0.00000000  0.50000000  0.11379000  1
  Sb  Sb15  1  0.50000000  0.50000000  0.22759000  1
  Sb  Sb16  1  0.99956600  0.50678100  0.33928500  1
  Sb  Sb17  1  0.00000000  0.33232000  1.00000000  1
  Sb  Sb18  1  0.50000000  0.33232000  0.11379000  1
  Sb  Sb19  1  0.49901900  0.33689100  0.36576200  1
  Sb  Sb20  1  0.00004600  0.34160600  0.45222000  1
  Sb  Sb21  1  0.50000000  0.83232000  1.00000000  1
  Sb  Sb22  1  0.00000000  0.83232000  0.11379000  1
  Sb  Sb23  1  0.49989100  0.81100800  0.46116400  1
  Sb  Sb24  1  0.50000000  0.16768000  1.00000000  1
  Sb  Sb25  1  0.50000000  0.16768000  0.22759000  1
  Sb  Sb26  1  0.50143300  0.17652700  0.46567000  1
  Sb  Sb27  1  0.50000000  0.66768000  0.11379000  1
  Sb  Sb28  1  0.00000000  0.66768000  0.22759000  1
  Sb  Sb29  1  0.49964600  0.66937900  0.33878200  1
  Cl  Cl30  1  0.49838900  0.42100000  0.52837700  1
  O  O31  1  0.00000000  0.17164000  0.04494000  1
  O  O32  1  0.50000000  0.17164000  0.15874000  1
  O  O33  1  0.00019600  0.15525700  0.27065200  1
  O  O34  1  0.50082000  0.13144800  0.39505600  1
  O  O35  1  0.50000000  0.17164000  0.06885000  1
  O  O36  1  0.00000000  0.17164000  0.18264000  1
  O  O37  1  0.49931800  0.15336600  0.29775000  1
  O  O38  1  0.00079900  0.19992100  0.39979300  1
  O  O39  1  0.69747000  0.67164000  1.00000000  1
  O  O40  1  0.19747000  0.67164000  0.11379000  1
  O  O41  1  0.69747000  0.67164000  0.22759000  1
  O  O42  1  0.19461300  0.66723100  0.33611400  1
  O  O43  1  0.71559200  0.66000300  0.46144200  1
  O  O44  1  0.30253000  0.67164000  1.00000000  1
  O  O45  1  0.80253000  0.67164000  0.11379000  1
  O  O46  1  0.30253000  0.67164000  0.22759000  1
  O  O47  1  0.80453800  0.66713300  0.33596000  1
  O  O48  1  0.28396100  0.66144100  0.46139900  1
  O  O49  1  0.69747000  0.32836000  1.00000000  1
  O  O50  1  0.19747000  0.32836000  0.11379000  1
  O  O51  1  0.69747000  0.32836000  0.22759000  1
  O  O52  1  0.18295000  0.33459000  0.33499300  1
  O  O53  1  0.68554600  0.33782500  0.43527700  1
  O  O54  1  0.30253000  0.32836000  1.00000000  1
  O  O55  1  0.80253000  0.32836000  0.11379000  1
  O  O56  1  0.30253000  0.32836000  0.22759000  1
  O  O57  1  0.81615700  0.33441700  0.33520600  1
  O  O58  1  0.31522700  0.33761500  0.43510000  1
  O  O59  1  0.00000000  0.82836000  0.04494000  1
  O  O60  1  0.50000000  0.82836000  0.15874000  1
  O  O61  1  0.00021600  0.84468700  0.27066400  1
  O  O62  1  0.49954700  0.82938900  0.38612600  1
  O  O63  1  0.50000000  0.82836000  0.06885000  1
  O  O64  1  0.00000000  0.82836000  0.18264000  1
  O  O65  1  0.49958500  0.83804600  0.29694500  1
  O  O66  1  0.99873700  0.81285400  0.40651400  1
  O  O67  1  0.00000000  0.50000000  0.04332000  1
  O  O68  1  0.50000000  0.50000000  0.15711000  1
  O  O69  1  0.00049200  0.49998000  0.27169600  1
  O  O70  1  0.49953100  0.54033200  0.38943900  1
  O  O71  1  0.50000000  0.50000000  0.07048000  1
  O  O72  1  0.00000000  0.50000000  0.18427000  1
  O  O73  1  0.49983900  0.50754900  0.29654900  1
  O  O74  1  0.99994300  0.50357900  0.40851900  1
  O  O75  1  0.69034000  0.00000000  1.00000000  1
  O  O76  1  0.19034000  1.00000000  0.11379000  1
  O  O77  1  0.69034000  0.00000000  0.22759000  1
  O  O78  1  0.18786500  0.00987200  0.34883400  1
  O  O79  1  0.76675100  0.02162500  0.45939900  1
  O  O80  1  0.30966000  1.00000000  0.00000000  1
  O  O81  1  0.80966000  0.00000000  0.11379000  1
  O  O82  1  0.30966000  1.00000000  0.22759000  1
  O  O83  1  0.81215000  0.01002100  0.34856200  1
  O  O84  1  0.23792800  0.01811100  0.45891900  1
