# generated using pymatgen
data_MgTiMnVZnCrFeCoCuNiSb20ClO54
_symmetry_space_group_name_H-M   'P 1'
_cell_length_a   6.63965800
_cell_length_b   9.65802300
_cell_length_c   29.70894300
_cell_angle_alpha   89.92684800
_cell_angle_beta   89.96447000
_cell_angle_gamma   89.94972000
_symmetry_Int_Tables_number   1
_chemical_formula_structural   MgTiMnVZnCrFeCoCuNiSb20ClO54
_chemical_formula_sum
'Mg1 Ti1 Mn1 V1 Zn1 Cr1 Fe1 Co1 Cu1 Ni1 Sb20 Cl1 O54'
_cell_volume   1905.11212665
_cell_formula_units_Z   1
loop_
 _symmetry_equiv_pos_site_id
 _symmetry_equiv_pos_as_xyz
  1  'x, y, z'
loop_
 _atom_site_type_symbol
 _atom_site_label
 _atom_site_symmetry_multiplicity
 _atom_site_fract_x
 _atom_site_fract_y
 _atom_site_fract_z
 _atom_site_occupancy
  Mg  Mg0  1  0.00000000  0.33232000  0.77241000  1
  Ti  Ti1  1  1.00000000  0.66768000  1.00000000  1
  Mn  Mn2  1  0.99909400  0.33854000  0.57079600  1
  V  V3  1  0.00010100  0.83063500  0.65757400  1
  Zn  Zn4  1  0.50000000  0.83232000  0.77241000  1
  Cr  Cr5  1  0.50311100  0.84947600  0.55608000  1
  Fe  Fe6  1  0.50000000  0.50000000  1.00000000  1
  Co  Co7  1  0.50000000  0.83232000  1.00000000  1
  Cu  Cu8  1  0.99956400  0.98203000  0.55817500  1
  Ni  Ni9  1  0.49700100  0.53262000  0.55152600  1
  Sb  Sb10  1  0.00000000  0.00000000  0.00000000  1
  Sb  Sb11  1  0.50000000  0.00000000  0.88621000  1
  Sb  Sb12  1  0.00000000  0.00000000  0.77241000  1
  Sb  Sb13  1  0.50037200  0.00230600  0.66242500  1
  Sb  Sb14  1  1.00000000  0.50000000  0.88621000  1
  Sb  Sb15  1  0.50000000  0.50000000  0.77241000  1
  Sb  Sb16  1  0.99887000  0.50397200  0.66087100  1
  Sb  Sb17  1  0.50000000  0.66768000  0.88621000  1
  Sb  Sb18  1  1.00000000  0.66768000  0.77241000  1
  Sb  Sb19  1  0.50050700  0.67873600  0.66450700  1
  Sb  Sb20  1  0.00535900  0.70438800  0.53725200  1
  Sb  Sb21  1  0.50000000  0.16768000  1.00000000  1
  Sb  Sb22  1  0.00000000  0.16768000  0.88621000  1
  Sb  Sb23  1  0.50000000  0.16768000  0.77241000  1
  Sb  Sb24  1  0.00028200  0.15674500  0.66143200  1
  Sb  Sb25  1  0.49756800  0.20802100  0.54199200  1
  Sb  Sb26  1  1.00000000  0.83232000  0.88621000  1
  Sb  Sb27  1  0.00000000  0.33232000  1.00000000  1
  Sb  Sb28  1  0.50000000  0.33232000  0.88621000  1
  Sb  Sb29  1  0.49941500  0.33881500  0.64421200  1
  Cl  Cl30  1  0.49213700  0.42598000  0.48259000  1
  O  O31  1  1.00000000  0.82836000  0.95506000  1
  O  O32  1  0.50000000  0.82836000  0.84126000  1
  O  O33  1  0.00019600  0.84474300  0.72934800  1
  O  O34  1  0.50324100  0.84155500  0.61835400  1
  O  O35  1  0.50000000  0.82836000  0.93115000  1
  O  O36  1  1.00000000  0.82836000  0.81736000  1
  O  O37  1  0.49956300  0.84398300  0.70478600  1
  O  O38  1  0.99692000  0.81129500  0.59999200  1
  O  O39  1  0.69747000  0.32836000  1.00000000  1
  O  O40  1  0.19747000  0.32836000  0.88621000  1
  O  O41  1  0.69747000  0.32836000  0.77241000  1
  O  O42  1  0.19373000  0.31335500  0.66566900  1
  O  O43  1  0.70505200  0.33981100  0.56778600  1
  O  O44  1  0.30253000  0.32836000  1.00000000  1
  O  O45  1  0.80253000  0.32836000  0.88621000  1
  O  O46  1  0.30253000  0.32836000  0.77241000  1
  O  O47  1  0.80553100  0.31329700  0.66502000  1
  O  O48  1  0.29447900  0.34359900  0.56909600  1
  O  O49  1  0.69747000  0.67164000  0.00000000  1
  O  O50  1  0.19747000  0.67164000  0.88621000  1
  O  O51  1  0.69747000  0.67164000  0.77241000  1
  O  O52  1  0.19682000  0.68878100  0.66816400  1
  O  O53  1  0.66897200  0.70022800  0.54526700  1
  O  O54  1  0.30253000  0.67164000  1.00000000  1
  O  O55  1  0.80253000  0.67164000  0.88621000  1
  O  O56  1  0.30253000  0.67164000  0.77241000  1
  O  O57  1  0.80455400  0.68938900  0.66919000  1
  O  O58  1  0.31804600  0.69658800  0.54829600  1
  O  O59  1  0.00000000  0.17164000  0.95506000  1
  O  O60  1  0.50000000  0.17164000  0.84126000  1
  O  O61  1  0.00021600  0.15531300  0.72933600  1
  O  O62  1  0.49971700  0.13843600  0.61339500  1
  O  O63  1  0.50000000  0.17164000  0.93115000  1
  O  O64  1  0.00000000  0.17164000  0.81736000  1
  O  O65  1  0.50010900  0.16217400  0.70410600  1
  O  O66  1  0.00311000  0.15704500  0.59387100  1
  O  O67  1  1.00000000  0.50000000  0.95668000  1
  O  O68  1  0.50000000  0.50000000  0.84289000  1
  O  O69  1  0.00049200  0.50002000  0.72830400  1
  O  O70  1  0.51018500  0.54338600  0.61647500  1
  O  O71  1  0.50000000  0.50000000  0.92952000  1
  O  O72  1  1.00000000  0.50000000  0.81573000  1
  O  O73  1  0.49934500  0.50838200  0.70433600  1
  O  O74  1  0.99153600  0.52579000  0.56673100  1
  O  O75  1  0.69034000  1.00000000  0.00000000  1
  O  O76  1  0.19034000  0.00000000  0.88621000  1
  O  O77  1  0.69034000  1.00000000  0.77241000  1
  O  O78  1  0.19173400  0.99131400  0.66174100  1
  O  O79  1  0.70209300  0.96031500  0.54609300  1
  O  O80  1  0.30966000  0.00000000  0.00000000  1
  O  O81  1  0.80966000  1.00000000  0.88621000  1
  O  O82  1  0.30966000  0.00000000  0.77241000  1
  O  O83  1  0.80889000  0.99188300  0.66183500  1
  O  O84  1  0.30018000  0.95585900  0.54544600  1
