# generated using pymatgen
data_MgTiMnVZnCrFeCoCuNiSb20ClO54
_symmetry_space_group_name_H-M   'P 1'
_cell_length_a   6.59135100
_cell_length_b   9.52532200
_cell_length_c   28.74569600
_cell_angle_alpha   89.83725000
_cell_angle_beta   89.58439900
_cell_angle_gamma   89.54358400
_symmetry_Int_Tables_number   1
_chemical_formula_structural   MgTiMnVZnCrFeCoCuNiSb20ClO54
_chemical_formula_sum
'Mg1 Ti1 Mn1 V1 Zn1 Cr1 Fe1 Co1 Cu1 Ni1 Sb20 Cl1 O54'
_cell_volume   1804.67934083
_cell_formula_units_Z   1
loop_
 _symmetry_equiv_pos_site_id
 _symmetry_equiv_pos_as_xyz
  1  'x, y, z'
loop_
 _atom_site_type_symbol
 _atom_site_label
 _atom_site_symmetry_multiplicity
 _atom_site_fract_x
 _atom_site_fract_y
 _atom_site_fract_z
 _atom_site_occupancy
  Mg  Mg0  1  0.50000000  0.50000000  0.00000000  1
  Ti  Ti1  1  0.50000000  0.83232000  0.77241000  1
  Mn  Mn2  1  0.98818600  0.00541800  0.55146500  1
  V  V3  1  0.00000000  0.00000000  0.00000000  1
  Zn  Zn4  1  0.00000000  0.16768000  0.88621000  1
  Cr  Cr5  1  0.50000000  0.66768000  0.88621000  1
  Fe  Fe6  1  0.50000000  0.83232000  0.00000000  1
  Co  Co7  1  0.50000000  0.16768000  0.77241000  1
  Cu  Cu8  1  0.50000000  0.33232000  0.88621000  1
  Ni  Ni9  1  0.49527500  0.50669900  0.54329600  1
  Sb  Sb10  1  0.50000000  1.00000000  0.88621000  1
  Sb  Sb11  1  0.00000000  0.00000000  0.77241000  1
  Sb  Sb12  1  0.50518600  0.00798000  0.66062400  1
  Sb  Sb13  1  0.00000000  0.50000000  0.88621000  1
  Sb  Sb14  1  0.50000000  0.50000000  0.77241000  1
  Sb  Sb15  1  0.97215300  0.49595100  0.64879900  1
  Sb  Sb16  1  0.00000000  0.66768000  1.00000000  1
  Sb  Sb17  1  0.00000000  0.66768000  0.77241000  1
  Sb  Sb18  1  0.50937400  0.67086200  0.66006500  1
  Sb  Sb19  1  0.00521600  0.67069900  0.51535300  1
  Sb  Sb20  1  0.50000000  0.16768000  0.00000000  1
  Sb  Sb21  1  0.99841300  0.16719800  0.65834100  1
  Sb  Sb22  1  0.50578800  0.19197000  0.53031100  1
  Sb  Sb23  1  0.00000000  0.83232000  0.88621000  1
  Sb  Sb24  1  0.01263700  0.82379700  0.64629600  1
  Sb  Sb25  1  0.51844300  0.82591100  0.53805400  1
  Sb  Sb26  1  0.00000000  0.33232000  1.00000000  1
  Sb  Sb27  1  0.00000000  0.33232000  0.77241000  1
  Sb  Sb28  1  0.48630100  0.33333333  0.63775200  1
  Sb  Sb29  1  0.01095300  0.32558300  0.53433000  1
  Cl  Cl30  1  0.41935100  0.41894500  0.46978500  1
  O  O31  1  0.00000000  0.82836000  0.95506000  1
  O  O32  1  0.50000000  0.82836000  0.84126000  1
  O  O33  1  0.00019600  0.84474300  0.72934800  1
  O  O34  1  0.51073500  0.84014600  0.61616500  1
  O  O35  1  0.50000000  0.82836000  0.93115000  1
  O  O36  1  0.00000000  0.82836000  0.81736000  1
  O  O37  1  0.48705100  0.83940000  0.70394400  1
  O  O38  1  0.91646300  0.82295500  0.56004300  1
  O  O39  1  0.69747000  0.32836000  0.00000000  1
  O  O40  1  0.19747000  0.32836000  0.88621000  1
  O  O41  1  0.69747000  0.32836000  0.77241000  1
  O  O42  1  0.18226500  0.32603600  0.66528600  1
  O  O43  1  0.70084500  0.33992900  0.55235800  1
  O  O44  1  0.30253000  0.32836000  0.00000000  1
  O  O45  1  0.80253000  0.32836000  0.88621000  1
  O  O46  1  0.30253000  0.32836000  0.77241000  1
  O  O47  1  0.79373300  0.31494500  0.66475700  1
  O  O48  1  0.31810700  0.34037800  0.56638800  1
  O  O49  1  0.69747000  0.67164000  0.00000000  1
  O  O50  1  0.19747000  0.67164000  0.88621000  1
  O  O51  1  0.69747000  0.67164000  0.77241000  1
  O  O52  1  0.21242500  0.65777700  0.66466200  1
  O  O53  1  0.67718500  0.65415700  0.51924200  1
  O  O54  1  0.30253000  0.67164000  0.00000000  1
  O  O55  1  0.80253000  0.67164000  0.88621000  1
  O  O56  1  0.30253000  0.67164000  0.77241000  1
  O  O57  1  0.80207500  0.68456800  0.67445100  1
  O  O58  1  0.30236500  0.68441800  0.54574600  1
  O  O59  1  0.00000000  0.17164000  0.95506000  1
  O  O60  1  0.50000000  0.17164000  0.84126000  1
  O  O61  1  0.00021600  0.15531300  0.72933600  1
  O  O62  1  0.52122100  0.12878400  0.60478600  1
  O  O63  1  0.50000000  0.17164000  0.93115000  1
  O  O64  1  0.00000000  0.17164000  0.81736000  1
  O  O65  1  0.49607800  0.16668200  0.70235600  1
  O  O66  1  0.00307700  0.17368500  0.58933500  1
  O  O67  1  0.00000000  0.50000000  0.95668000  1
  O  O68  1  0.50000000  0.50000000  0.84289000  1
  O  O69  1  0.00049200  0.50002000  0.72830400  1
  O  O70  1  0.57793200  0.54672900  0.60930700  1
  O  O71  1  0.50000000  0.50000000  0.92952000  1
  O  O72  1  0.00000000  0.50000000  0.81573000  1
  O  O73  1  0.51063100  0.50440500  0.70341300  1
  O  O74  1  0.99895600  0.51693800  0.56305600  1
  O  O75  1  0.69034000  0.00000000  0.00000000  1
  O  O76  1  0.19034000  1.00000000  0.88621000  1
  O  O77  1  0.69034000  0.00000000  0.77241000  1
  O  O78  1  0.20026900  0.01031500  0.65941500  1
  O  O79  1  0.79703400  0.07151400  0.51769900  1
  O  O80  1  0.30966000  1.00000000  0.00000000  1
  O  O81  1  0.80966000  0.00000000  0.88621000  1
  O  O82  1  0.30966000  1.00000000  0.77241000  1
  O  O83  1  0.81081400  0.00371800  0.66106300  1
  O  O84  1  0.22770000  0.99172400  0.53150600  1
