# generated using pymatgen
data_MgTiMnVZnCrFeCoCuNiSb20ClO54
_symmetry_space_group_name_H-M   'P 1'
_cell_length_a   6.69226900
_cell_length_b   9.75129100
_cell_length_c   29.09278400
_cell_angle_alpha   90.01355600
_cell_angle_beta   89.73462900
_cell_angle_gamma   89.57312900
_symmetry_Int_Tables_number   1
_chemical_formula_structural   MgTiMnVZnCrFeCoCuNiSb20ClO54
_chemical_formula_sum
'Mg1 Ti1 Mn1 V1 Zn1 Cr1 Fe1 Co1 Cu1 Ni1 Sb20 Cl1 O54'
_cell_volume   1898.47141052
_cell_formula_units_Z   1
loop_
 _symmetry_equiv_pos_site_id
 _symmetry_equiv_pos_as_xyz
  1  'x, y, z'
loop_
 _atom_site_type_symbol
 _atom_site_label
 _atom_site_symmetry_multiplicity
 _atom_site_fract_x
 _atom_site_fract_y
 _atom_site_fract_z
 _atom_site_occupancy
  Mg  Mg0  1  0.50000000  0.33232000  0.11379000  1
  Ti  Ti1  1  0.02632900  0.49755100  0.34157200  1
  Mn  Mn2  1  1.00000000  0.66768000  1.00000000  1
  V  V3  1  0.54070800  0.33240000  0.34126000  1
  Zn  Zn4  1  0.05550200  0.18063100  0.33782300  1
  Cr  Cr5  1  0.03473300  0.65221400  0.44136200  1
  Fe  Fe6  1  0.50000000  0.83232000  0.22759000  1
  Co  Co7  1  0.98999200  0.81289600  0.33577700  1
  Cu  Cu8  1  1.00000000  0.33232000  0.00000000  1
  Ni  Ni9  1  0.48115500  0.49922200  0.44943300  1
  Sb  Sb10  1  0.00000000  0.00000000  0.00000000  1
  Sb  Sb11  1  0.50000000  0.00000000  0.11379000  1
  Sb  Sb12  1  0.00000000  0.00000000  0.22759000  1
  Sb  Sb13  1  0.50238200  0.99139600  0.34239700  1
  Sb  Sb14  1  0.97541200  0.98841800  0.41272800  1
  Sb  Sb15  1  0.50000000  0.50000000  0.00000000  1
  Sb  Sb16  1  1.00000000  0.50000000  0.11379000  1
  Sb  Sb17  1  0.50000000  0.50000000  0.22759000  1
  Sb  Sb18  1  0.50000000  0.66768000  0.11379000  1
  Sb  Sb19  1  1.00000000  0.66768000  0.22759000  1
  Sb  Sb20  1  0.50911000  0.65411000  0.34075400  1
  Sb  Sb21  1  0.50000000  0.16768000  0.00000000  1
  Sb  Sb22  1  1.00000000  0.16768000  0.11379000  1
  Sb  Sb23  1  0.50000000  0.16768000  0.22759000  1
  Sb  Sb24  1  0.49335900  0.19113600  0.45475000  1
  Sb  Sb25  1  0.50000000  0.83232000  1.00000000  1
  Sb  Sb26  1  1.00000000  0.83232000  0.11379000  1
  Sb  Sb27  1  0.46211700  0.83721700  0.45881000  1
  Sb  Sb28  1  0.00000000  0.33232000  0.22759000  1
  Sb  Sb29  1  0.99011200  0.33357400  0.45904200  1
  Cl  Cl30  1  0.49001500  0.53290100  0.52382300  1
  O  O31  1  1.00000000  0.82836000  0.04494000  1
  O  O32  1  0.50000000  0.82836000  0.15874000  1
  O  O33  1  0.99980400  0.84474300  0.27065200  1
  O  O34  1  0.50444800  0.81518900  0.38867100  1
  O  O35  1  0.50000000  0.82836000  0.06885000  1
  O  O36  1  0.00000000  0.82836000  0.18264000  1
  O  O37  1  0.49724000  0.81804900  0.29789400  1
  O  O38  1  0.95735200  0.78496200  0.40324500  1
  O  O39  1  0.30253000  0.32836000  0.00000000  1
  O  O40  1  0.80253000  0.32836000  0.11379000  1
  O  O41  1  0.30253000  0.32836000  0.22759000  1
  O  O42  1  0.79355500  0.34571900  0.33784500  1
  O  O43  1  0.29570900  0.34855500  0.44733200  1
  O  O44  1  0.69747000  0.32836000  0.00000000  1
  O  O45  1  0.19747000  0.32836000  0.11379000  1
  O  O46  1  0.69747000  0.32836000  0.22759000  1
  O  O47  1  0.19987400  0.35609300  0.33827400  1
  O  O48  1  0.67828700  0.34837800  0.45251300  1
  O  O49  1  0.30253000  0.67164000  1.00000000  1
  O  O50  1  0.80253000  0.67164000  0.11379000  1
  O  O51  1  0.30253000  0.67164000  0.22759000  1
  O  O52  1  0.80458800  0.64671100  0.33525700  1
  O  O53  1  0.29368900  0.65790200  0.44610700  1
  O  O54  1  0.69747000  0.67164000  1.00000000  1
  O  O55  1  0.19747000  0.67164000  0.11379000  1
  O  O56  1  0.69747000  0.67164000  0.22759000  1
  O  O57  1  0.20145000  0.64830300  0.34017900  1
  O  O58  1  0.89480500  0.66506800  0.48577100  1
  O  O59  1  1.00000000  0.17164000  0.04494000  1
  O  O60  1  0.50000000  0.17164000  0.15874000  1
  O  O61  1  0.99978400  0.15531300  0.27066400  1
  O  O62  1  0.50623200  0.19642200  0.38378900  1
  O  O63  1  0.50000000  0.17164000  0.06885000  1
  O  O64  1  0.00000000  0.17164000  0.18264000  1
  O  O65  1  0.49814000  0.19573300  0.29695100  1
  O  O66  1  0.99758200  0.19155200  0.40840100  1
  O  O67  1  1.00000000  0.50000000  0.04332000  1
  O  O68  1  0.50000000  0.50000000  0.15711000  1
  O  O69  1  0.99950800  0.50002000  0.27169600  1
  O  O70  1  0.50884900  0.49206700  0.38264800  1
  O  O71  1  0.50000000  0.50000000  0.07048000  1
  O  O72  1  1.00000000  0.50000000  0.18427000  1
  O  O73  1  0.50076600  0.49131200  0.29654700  1
  O  O74  1  0.98035200  0.49341900  0.41096900  1
  O  O75  1  0.30966000  1.00000000  0.00000000  1
  O  O76  1  0.80966000  0.00000000  0.11379000  1
  O  O77  1  0.30966000  1.00000000  0.22759000  1
  O  O78  1  0.81094900  0.98561500  0.35233500  1
  O  O79  1  0.21775600  0.95989400  0.45403300  1
  O  O80  1  0.69034000  0.00000000  0.00000000  1
  O  O81  1  0.19034000  1.00000000  0.11379000  1
  O  O82  1  0.69034000  0.00000000  0.22759000  1
  O  O83  1  0.17372700  0.98908900  0.35723800  1
  O  O84  1  0.72881200  0.00817000  0.44963200  1
