# generated using pymatgen
data_MgTiMnVZnCrFeCoCuNiSb20ClO54
_symmetry_space_group_name_H-M   'P 1'
_cell_length_a   6.58342800
_cell_length_b   9.79895200
_cell_length_c   28.98542000
_cell_angle_alpha   89.89064400
_cell_angle_beta   89.97858700
_cell_angle_gamma   89.56062000
_symmetry_Int_Tables_number   1
_chemical_formula_structural   MgTiMnVZnCrFeCoCuNiSb20ClO54
_chemical_formula_sum
'Mg1 Ti1 Mn1 V1 Zn1 Cr1 Fe1 Co1 Cu1 Ni1 Sb20 Cl1 O54'
_cell_volume   1869.81108061
_cell_formula_units_Z   1
loop_
 _symmetry_equiv_pos_site_id
 _symmetry_equiv_pos_as_xyz
  1  'x, y, z'
loop_
 _atom_site_type_symbol
 _atom_site_label
 _atom_site_symmetry_multiplicity
 _atom_site_fract_x
 _atom_site_fract_y
 _atom_site_fract_z
 _atom_site_occupancy
  Mg  Mg0  1  0.00000000  0.00000000  0.00000000  1
  Ti  Ti1  1  0.00000000  0.66768000  0.00000000  1
  Mn  Mn2  1  0.00424500  0.17422300  0.33648400  1
  V  V3  1  0.00000000  0.33232000  0.22759000  1
  Zn  Zn4  1  0.43124600  0.80236600  0.45128600  1
  Cr  Cr5  1  0.00000000  0.33232000  0.00000000  1
  Fe  Fe6  1  0.50000000  0.16768000  0.22759000  1
  Co  Co7  1  0.00000000  0.66768000  0.22759000  1
  Cu  Cu8  1  0.99224400  0.82683200  0.33504400  1
  Ni  Ni9  1  0.49632900  0.49789900  0.45242100  1
  Sb  Sb10  1  0.50000000  0.00000000  0.11379000  1
  Sb  Sb11  1  0.00000000  0.00000000  0.22759000  1
  Sb  Sb12  1  0.50636800  0.00221000  0.34674400  1
  Sb  Sb13  1  0.01877700  0.99616800  0.41865200  1
  Sb  Sb14  1  0.50000000  0.50000000  0.00000000  1
  Sb  Sb15  1  0.00000000  0.50000000  0.11379000  1
  Sb  Sb16  1  0.50000000  0.50000000  0.22759000  1
  Sb  Sb17  1  0.99996300  0.50304900  0.33857100  1
  Sb  Sb18  1  0.50000000  0.66768000  0.11379000  1
  Sb  Sb19  1  0.49890500  0.66631200  0.34256600  1
  Sb  Sb20  1  0.97050100  0.66842100  0.45701900  1
  Sb  Sb21  1  0.50000000  0.16768000  0.00000000  1
  Sb  Sb22  1  0.00000000  0.16768000  0.11379000  1
  Sb  Sb23  1  0.52994700  0.17986200  0.46291300  1
  Sb  Sb24  1  0.50000000  0.83232000  0.00000000  1
  Sb  Sb25  1  0.00000000  0.83232000  0.11379000  1
  Sb  Sb26  1  0.50000000  0.83232000  0.22759000  1
  Sb  Sb27  1  0.50000000  0.33232000  0.11379000  1
  Sb  Sb28  1  0.50140300  0.33221400  0.34627800  1
  Sb  Sb29  1  0.01421800  0.34147500  0.45625800  1
  Cl  Cl30  1  0.51781300  0.45817700  0.52749500  1
  O  O31  1  0.00000000  0.82836000  0.04494000  1
  O  O32  1  0.50000000  0.82836000  0.15874000  1
  O  O33  1  0.99980400  0.84474300  0.27065200  1
  O  O34  1  0.50872400  0.82853900  0.38506100  1
  O  O35  1  0.50000000  0.82836000  0.06885000  1
  O  O36  1  0.00000000  0.82836000  0.18264000  1
  O  O37  1  0.50010200  0.83968100  0.29863400  1
  O  O38  1  0.99636000  0.80019300  0.40354700  1
  O  O39  1  0.30253000  0.32836000  0.00000000  1
  O  O40  1  0.80253000  0.32836000  0.11379000  1
  O  O41  1  0.30253000  0.32836000  0.22759000  1
  O  O42  1  0.80616700  0.33778500  0.33984400  1
  O  O43  1  0.32575200  0.34393800  0.44384900  1
  O  O44  1  0.69747000  0.32836000  0.00000000  1
  O  O45  1  0.19747000  0.32836000  0.11379000  1
  O  O46  1  0.69747000  0.32836000  0.22759000  1
  O  O47  1  0.19618400  0.33849500  0.33905500  1
  O  O48  1  0.69910300  0.34374000  0.44287200  1
  O  O49  1  0.30253000  0.67164000  0.00000000  1
  O  O50  1  0.80253000  0.67164000  0.11379000  1
  O  O51  1  0.30253000  0.67164000  0.22759000  1
  O  O52  1  0.79883900  0.65856200  0.33798700  1
  O  O53  1  0.28243800  0.63172800  0.46062600  1
  O  O54  1  0.69747000  0.67164000  0.00000000  1
  O  O55  1  0.19747000  0.67164000  0.11379000  1
  O  O56  1  0.69747000  0.67164000  0.22759000  1
  O  O57  1  0.19778900  0.66082500  0.33771500  1
  O  O58  1  0.66068800  0.65650200  0.45494600  1
  O  O59  1  0.00000000  0.17164000  0.04494000  1
  O  O60  1  0.50000000  0.17164000  0.15874000  1
  O  O61  1  0.99978400  0.15531300  0.27066400  1
  O  O62  1  0.50379800  0.16438700  0.39082000  1
  O  O63  1  0.50000000  0.17164000  0.06885000  1
  O  O64  1  0.00000000  0.17164000  0.18264000  1
  O  O65  1  0.49922900  0.16377200  0.30187700  1
  O  O66  1  0.02370800  0.19605300  0.40545400  1
  O  O67  1  0.00000000  0.50000000  0.04332000  1
  O  O68  1  0.50000000  0.50000000  0.15711000  1
  O  O69  1  0.99950800  0.50002000  0.27169600  1
  O  O70  1  0.49445200  0.50606300  0.38629200  1
  O  O71  1  0.50000000  0.50000000  0.07048000  1
  O  O72  1  0.00000000  0.50000000  0.18427000  1
  O  O73  1  0.50051900  0.49791900  0.29822800  1
  O  O74  1  0.99060000  0.50432700  0.41074800  1
  O  O75  1  0.30966000  0.00000000  0.00000000  1
  O  O76  1  0.80966000  0.00000000  0.11379000  1
  O  O77  1  0.30966000  0.00000000  0.22759000  1
  O  O78  1  0.81737800  0.00854800  0.35103400  1
  O  O79  1  0.27052900  0.97888600  0.45436000  1
  O  O80  1  0.69034000  0.00000000  0.00000000  1
  O  O81  1  0.19034000  0.00000000  0.11379000  1
  O  O82  1  0.69034000  0.00000000  0.22759000  1
  O  O83  1  0.19473100  0.00603500  0.35385200  1
  O  O84  1  0.77208900  0.01787300  0.45492500  1
