# generated using pymatgen
data_MgTiMnVZnCrFeCoCuNiSb20ClO54
_symmetry_space_group_name_H-M   'P 1'
_cell_length_a   6.67190400
_cell_length_b   9.70556100
_cell_length_c   29.36524700
_cell_angle_alpha   89.96661300
_cell_angle_beta   89.94517400
_cell_angle_gamma   89.84264500
_symmetry_Int_Tables_number   1
_chemical_formula_structural   MgTiMnVZnCrFeCoCuNiSb20ClO54
_chemical_formula_sum
'Mg1 Ti1 Mn1 V1 Zn1 Cr1 Fe1 Co1 Cu1 Ni1 Sb20 Cl1 O54'
_cell_volume   1901.52561771
_cell_formula_units_Z   1
loop_
 _symmetry_equiv_pos_site_id
 _symmetry_equiv_pos_as_xyz
  1  'x, y, z'
loop_
 _atom_site_type_symbol
 _atom_site_label
 _atom_site_symmetry_multiplicity
 _atom_site_fract_x
 _atom_site_fract_y
 _atom_site_fract_z
 _atom_site_occupancy
  Mg  Mg0  1  0.00184400  0.66855800  0.55377500  1
  Ti  Ti1  1  0.50199600  0.66169200  0.66144800  1
  Mn  Mn2  1  0.99458900  0.33146900  0.57641300  1
  V  V3  1  0.48903700  0.19018200  0.54514900  1
  Zn  Zn4  1  0.00000000  0.66768000  1.00000000  1
  Cr  Cr5  1  0.00000000  0.66768000  0.77241000  1
  Fe  Fe6  1  0.00375200  0.17162400  0.66104600  1
  Co  Co7  1  0.50000000  0.66768000  0.88621000  1
  Cu  Cu8  1  0.50000000  0.16768000  1.00000000  1
  Ni  Ni9  1  0.51040400  0.49150700  0.54915400  1
  Sb  Sb10  1  0.00000000  0.00000000  0.00000000  1
  Sb  Sb11  1  0.50000000  0.00000000  0.88621000  1
  Sb  Sb12  1  0.00000000  0.00000000  0.77241000  1
  Sb  Sb13  1  0.50069600  0.99431000  0.65836900  1
  Sb  Sb14  1  0.98298800  0.00815200  0.54272600  1
  Sb  Sb15  1  0.50000000  0.50000000  1.00000000  1
  Sb  Sb16  1  0.00000000  0.50000000  0.88621000  1
  Sb  Sb17  1  0.50000000  0.50000000  0.77241000  1
  Sb  Sb18  1  0.00320300  0.50336400  0.66093700  1
  Sb  Sb19  1  1.00000000  0.33232000  1.00000000  1
  Sb  Sb20  1  0.50000000  0.33232000  0.88621000  1
  Sb  Sb21  1  1.00000000  0.33232000  0.77241000  1
  Sb  Sb22  1  0.50277200  0.33955100  0.63802700  1
  Sb  Sb23  1  0.50000000  0.83232000  0.00000000  1
  Sb  Sb24  1  0.00000000  0.83232000  0.88621000  1
  Sb  Sb25  1  0.50000000  0.83232000  0.77241000  1
  Sb  Sb26  1  0.99907700  0.83894200  0.65891400  1
  Sb  Sb27  1  0.49898800  0.79842800  0.54346900  1
  Sb  Sb28  1  1.00000000  0.16768000  0.88621000  1
  Sb  Sb29  1  0.50000000  0.16768000  0.77241000  1
  Cl  Cl30  1  0.51279700  0.34866400  0.48357700  1
  O  O31  1  1.00000000  0.17164000  0.95506000  1
  O  O32  1  0.50000000  0.17164000  0.84126000  1
  O  O33  1  0.99980400  0.15525700  0.72934800  1
  O  O34  1  0.49717500  0.13061000  0.60854900  1
  O  O35  1  0.50000000  0.17164000  0.93115000  1
  O  O36  1  0.00000000  0.17164000  0.81736000  1
  O  O37  1  0.49936600  0.15254500  0.70241000  1
  O  O38  1  0.00512800  0.14577400  0.59168700  1
  O  O39  1  0.30253000  0.67164000  0.00000000  1
  O  O40  1  0.80253000  0.67164000  0.88621000  1
  O  O41  1  0.30253000  0.67164000  0.77241000  1
  O  O42  1  0.81036700  0.67309700  0.66329000  1
  O  O43  1  0.29515800  0.65448500  0.53798600  1
  O  O44  1  0.69747000  0.67164000  1.00000000  1
  O  O45  1  0.19747000  0.67164000  0.88621000  1
  O  O46  1  0.69747000  0.67164000  0.77241000  1
  O  O47  1  0.19260100  0.67407900  0.66250500  1
  O  O48  1  0.70930600  0.65786800  0.53688000  1
  O  O49  1  0.30253000  0.32836000  0.00000000  1
  O  O50  1  0.80253000  0.32836000  0.88621000  1
  O  O51  1  0.30253000  0.32836000  0.77241000  1
  O  O52  1  0.81956100  0.33864300  0.66147300  1
  O  O53  1  0.31576000  0.33525200  0.57012000  1
  O  O54  1  0.69747000  0.32836000  1.00000000  1
  O  O55  1  0.19747000  0.32836000  0.88621000  1
  O  O56  1  0.69747000  0.32836000  0.77241000  1
  O  O57  1  0.18911600  0.33875000  0.66097700  1
  O  O58  1  0.70949100  0.34060700  0.57012600  1
  O  O59  1  0.00000000  0.82836000  0.95506000  1
  O  O60  1  0.50000000  0.82836000  0.84126000  1
  O  O61  1  0.99978400  0.84468700  0.72933600  1
  O  O62  1  0.50273700  0.82761400  0.61683200  1
  O  O63  1  0.50000000  0.82836000  0.93115000  1
  O  O64  1  0.00000000  0.82836000  0.81736000  1
  O  O65  1  0.50117500  0.83499400  0.70369000  1
  O  O66  1  0.99070000  0.84556300  0.58985800  1
  O  O67  1  0.00000000  0.50000000  0.95668000  1
  O  O68  1  0.50000000  0.50000000  0.84289000  1
  O  O69  1  0.99950800  0.49998000  0.72830400  1
  O  O70  1  0.50419000  0.54900500  0.61350200  1
  O  O71  1  0.50000000  0.50000000  0.92952000  1
  O  O72  1  0.00000000  0.50000000  0.81573000  1
  O  O73  1  0.50107800  0.51521400  0.70215500  1
  O  O74  1  0.00535500  0.51358400  0.59414600  1
  O  O75  1  0.30966000  1.00000000  0.00000000  1
  O  O76  1  0.80966000  0.00000000  0.88621000  1
  O  O77  1  0.30966000  1.00000000  0.77241000  1
  O  O78  1  0.80445400  0.99763000  0.66148200  1
  O  O79  1  0.29973700  0.09244300  0.52681200  1
  O  O80  1  0.69034000  0.00000000  0.00000000  1
  O  O81  1  0.19034000  1.00000000  0.88621000  1
  O  O82  1  0.69034000  0.00000000  0.77241000  1
  O  O83  1  0.19630100  0.99539000  0.66107800  1
  O  O84  1  0.69616300  0.08260400  0.53212500  1
