# generated using pymatgen
data_MgTiMnVZnCrFeCoCuNiSb20ClO54
_symmetry_space_group_name_H-M   'P 1'
_cell_length_a   6.60266600
_cell_length_b   9.70604600
_cell_length_c   29.06232000
_cell_angle_alpha   89.68122400
_cell_angle_beta   89.95311300
_cell_angle_gamma   89.98890300
_symmetry_Int_Tables_number   1
_chemical_formula_structural   MgTiMnVZnCrFeCoCuNiSb20ClO54
_chemical_formula_sum
'Mg1 Ti1 Mn1 V1 Zn1 Cr1 Fe1 Co1 Cu1 Ni1 Sb20 Cl1 O54'
_cell_volume   1862.45196036
_cell_formula_units_Z   1
loop_
 _symmetry_equiv_pos_site_id
 _symmetry_equiv_pos_as_xyz
  1  'x, y, z'
loop_
 _atom_site_type_symbol
 _atom_site_label
 _atom_site_symmetry_multiplicity
 _atom_site_fract_x
 _atom_site_fract_y
 _atom_site_fract_z
 _atom_site_occupancy
  Mg  Mg0  1  0.99744700  0.83418800  0.33766000  1
  Ti  Ti1  1  0.02287600  0.65483900  0.42264100  1
  Mn  Mn2  1  0.00000000  0.66768000  1.00000000  1
  V  V3  1  1.00000000  0.66768000  0.22759000  1
  Zn  Zn4  1  0.99396000  0.50600000  0.33827400  1
  Cr  Cr5  1  0.50000000  0.50000000  1.00000000  1
  Fe  Fe6  1  0.00000000  0.00000000  0.00000000  1
  Co  Co7  1  0.50000000  0.16768000  1.00000000  1
  Cu  Cu8  1  1.00000000  0.16768000  0.11379000  1
  Ni  Ni9  1  0.50572700  0.49115800  0.45769000  1
  Sb  Sb10  1  0.50000000  0.00000000  0.11379000  1
  Sb  Sb11  1  1.00000000  0.00000000  0.22759000  1
  Sb  Sb12  1  0.49998400  0.99577900  0.35104700  1
  Sb  Sb13  1  0.00701100  0.00502800  0.44087800  1
  Sb  Sb14  1  1.00000000  0.50000000  0.11379000  1
  Sb  Sb15  1  0.50000000  0.50000000  0.22759000  1
  Sb  Sb16  1  0.50000000  0.66768000  0.11379000  1
  Sb  Sb17  1  0.50142900  0.66111900  0.35008200  1
  Sb  Sb18  1  0.50000000  0.16768000  0.22759000  1
  Sb  Sb19  1  0.99852000  0.17566400  0.34320600  1
  Sb  Sb20  1  0.50386200  0.17926100  0.47002600  1
  Sb  Sb21  1  0.50000000  0.83232000  1.00000000  1
  Sb  Sb22  1  1.00000000  0.83232000  0.11379000  1
  Sb  Sb23  1  0.50000000  0.83232000  0.22759000  1
  Sb  Sb24  1  0.52324100  0.77132100  0.47128300  1
  Sb  Sb25  1  0.00000000  0.33232000  1.00000000  1
  Sb  Sb26  1  0.50000000  0.33232000  0.11379000  1
  Sb  Sb27  1  1.00000000  0.33232000  0.22759000  1
  Sb  Sb28  1  0.49826600  0.33145100  0.34790200  1
  Sb  Sb29  1  0.00154300  0.36270600  0.46696000  1
  Cl  Cl30  1  0.51190500  0.54306800  0.53317200  1
  O  O31  1  1.00000000  0.82836000  0.04494000  1
  O  O32  1  0.50000000  0.82836000  0.15874000  1
  O  O33  1  0.99980400  0.84474300  0.27065200  1
  O  O34  1  0.50648400  0.80858600  0.39990100  1
  O  O35  1  0.50000000  0.82836000  0.06885000  1
  O  O36  1  1.00000000  0.82836000  0.18264000  1
  O  O37  1  0.49720000  0.81913600  0.29996300  1
  O  O38  1  0.00168300  0.84180500  0.40575800  1
  O  O39  1  0.30253000  0.32836000  1.00000000  1
  O  O40  1  0.80253000  0.32836000  0.11379000  1
  O  O41  1  0.30253000  0.32836000  0.22759000  1
  O  O42  1  0.80003200  0.32719600  0.33773400  1
  O  O43  1  0.31113300  0.33517100  0.45618000  1
  O  O44  1  0.69747000  0.32836000  1.00000000  1
  O  O45  1  0.19747000  0.32836000  0.11379000  1
  O  O46  1  0.69747000  0.32836000  0.22759000  1
  O  O47  1  0.19739100  0.32770600  0.33786700  1
  O  O48  1  0.69791300  0.33620900  0.45608000  1
  O  O49  1  0.30253000  0.67164000  1.00000000  1
  O  O50  1  0.80253000  0.67164000  0.11379000  1
  O  O51  1  0.30253000  0.67164000  0.22759000  1
  O  O52  1  0.80294100  0.66820600  0.34996000  1
  O  O53  1  0.25524300  0.65241400  0.45693600  1
  O  O54  1  0.69747000  0.67164000  1.00000000  1
  O  O55  1  0.19747000  0.67164000  0.11379000  1
  O  O56  1  0.69747000  0.67164000  0.22759000  1
  O  O57  1  0.19617200  0.66684500  0.35457300  1
  O  O58  1  0.77614400  0.65245100  0.45642400  1
  O  O59  1  1.00000000  0.17164000  0.04494000  1
  O  O60  1  0.50000000  0.17164000  0.15874000  1
  O  O61  1  0.99978400  0.15531300  0.27066400  1
  O  O62  1  0.50193600  0.17147500  0.39427000  1
  O  O63  1  0.50000000  0.17164000  0.06885000  1
  O  O64  1  1.00000000  0.17164000  0.18264000  1
  O  O65  1  0.49916700  0.16925000  0.30051200  1
  O  O66  1  0.99904200  0.19159400  0.41446200  1
  O  O67  1  1.00000000  0.50000000  0.04332000  1
  O  O68  1  0.50000000  0.50000000  0.15711000  1
  O  O69  1  0.99950800  0.50002000  0.27169600  1
  O  O70  1  0.50544400  0.49072900  0.39086700  1
  O  O71  1  0.50000000  0.50000000  0.07048000  1
  O  O72  1  1.00000000  0.50000000  0.18427000  1
  O  O73  1  0.49709000  0.49764500  0.30343500  1
  O  O74  1  0.00763400  0.46943400  0.40890500  1
  O  O75  1  0.30966000  0.00000000  0.00000000  1
  O  O76  1  0.80966000  0.00000000  0.11379000  1
  O  O77  1  0.30966000  0.00000000  0.22759000  1
  O  O78  1  0.81114500  0.01659600  0.34821800  1
  O  O79  1  0.26552400  0.00975100  0.46883400  1
  O  O80  1  0.69034000  0.00000000  0.00000000  1
  O  O81  1  0.19034000  0.00000000  0.11379000  1
  O  O82  1  0.69034000  0.00000000  0.22759000  1
  O  O83  1  0.18736100  0.01808900  0.34899500  1
  O  O84  1  0.74807900  0.00485500  0.46876500  1
