# generated using pymatgen
data_MgTiMnVZnCrFeCoCuNiSb20ClO54
_symmetry_space_group_name_H-M   'P 1'
_cell_length_a   6.70724400
_cell_length_b   9.54302300
_cell_length_c   29.69768600
_cell_angle_alpha   89.92095900
_cell_angle_beta   89.94736000
_cell_angle_gamma   89.94249100
_symmetry_Int_Tables_number   1
_chemical_formula_structural   MgTiMnVZnCrFeCoCuNiSb20ClO54
_chemical_formula_sum
'Mg1 Ti1 Mn1 V1 Zn1 Cr1 Fe1 Co1 Cu1 Ni1 Sb20 Cl1 O54'
_cell_volume   1900.86761842
_cell_formula_units_Z   1
loop_
 _symmetry_equiv_pos_site_id
 _symmetry_equiv_pos_as_xyz
  1  'x, y, z'
loop_
 _atom_site_type_symbol
 _atom_site_label
 _atom_site_symmetry_multiplicity
 _atom_site_fract_x
 _atom_site_fract_y
 _atom_site_fract_z
 _atom_site_occupancy
  Mg  Mg0  1  0.00000000  0.00000000  0.00000000  1
  Ti  Ti1  1  0.50000000  0.83232000  1.00000000  1
  Mn  Mn2  1  0.99975900  0.84978800  0.66125000  1
  V  V3  1  0.00000000  0.33232000  0.77241000  1
  Zn  Zn4  1  0.00000000  0.50000000  0.88621000  1
  Cr  Cr5  1  0.00048200  0.15384700  0.66327700  1
  Fe  Fe6  1  0.50165400  0.00163200  0.66343400  1
  Co  Co7  1  0.50390000  0.83362400  0.55699600  1
  Cu  Cu8  1  0.50600000  0.16208100  0.55441600  1
  Ni  Ni9  1  0.50030600  0.50437500  0.55334500  1
  Sb  Sb10  1  0.50000000  0.00000000  0.88621000  1
  Sb  Sb11  1  0.00000000  0.00000000  0.77241000  1
  Sb  Sb12  1  0.99975200  0.00032900  0.55103400  1
  Sb  Sb13  1  0.50000000  0.50000000  1.00000000  1
  Sb  Sb14  1  0.50000000  0.50000000  0.77241000  1
  Sb  Sb15  1  0.99928400  0.50049600  0.66126600  1
  Sb  Sb16  1  0.00000000  0.33232000  1.00000000  1
  Sb  Sb17  1  0.50000000  0.33232000  0.88621000  1
  Sb  Sb18  1  0.50040800  0.32505000  0.65610700  1
  Sb  Sb19  1  0.00209400  0.32763000  0.55035700  1
  Sb  Sb20  1  0.00000000  0.83232000  0.88621000  1
  Sb  Sb21  1  0.50000000  0.83232000  0.77241000  1
  Sb  Sb22  1  0.50000000  0.16768000  1.00000000  1
  Sb  Sb23  1  0.00000000  0.16768000  0.88621000  1
  Sb  Sb24  1  0.50000000  0.16768000  0.77241000  1
  Sb  Sb25  1  0.00000000  0.66768000  1.00000000  1
  Sb  Sb26  1  0.50000000  0.66768000  0.88621000  1
  Sb  Sb27  1  0.00000000  0.66768000  0.77241000  1
  Sb  Sb28  1  0.49887300  0.67403500  0.65711000  1
  Sb  Sb29  1  0.00864800  0.67390800  0.54878400  1
  Cl  Cl30  1  0.49789900  0.50990500  0.48137800  1
  O  O31  1  0.00000000  0.17164000  0.95506000  1
  O  O32  1  0.50000000  0.17164000  0.84126000  1
  O  O33  1  0.99980400  0.15525700  0.72934800  1
  O  O34  1  0.49942100  0.14513500  0.62160700  1
  O  O35  1  0.50000000  0.17164000  0.93115000  1
  O  O36  1  0.00000000  0.17164000  0.81736000  1
  O  O37  1  0.50099200  0.16169600  0.70446200  1
  O  O38  1  0.00357400  0.16313400  0.59623800  1
  O  O39  1  0.30253000  0.67164000  1.00000000  1
  O  O40  1  0.80253000  0.67164000  0.88621000  1
  O  O41  1  0.30253000  0.67164000  0.77241000  1
  O  O42  1  0.80974400  0.66878500  0.66276800  1
  O  O43  1  0.31802700  0.67375900  0.55771800  1
  O  O44  1  0.69747000  0.67164000  1.00000000  1
  O  O45  1  0.19747000  0.67164000  0.88621000  1
  O  O46  1  0.69747000  0.67164000  0.77241000  1
  O  O47  1  0.18884200  0.66889500  0.66308400  1
  O  O48  1  0.67682300  0.68051200  0.55495100  1
  O  O49  1  0.30253000  0.32836000  1.00000000  1
  O  O50  1  0.80253000  0.32836000  0.88621000  1
  O  O51  1  0.30253000  0.32836000  0.77241000  1
  O  O52  1  0.81113400  0.33237600  0.66211000  1
  O  O53  1  0.31852200  0.33461000  0.55596200  1
  O  O54  1  0.69747000  0.32836000  1.00000000  1
  O  O55  1  0.19747000  0.32836000  0.88621000  1
  O  O56  1  0.69747000  0.32836000  0.77241000  1
  O  O57  1  0.18934500  0.33270100  0.66217600  1
  O  O58  1  0.68591600  0.33731900  0.55466700  1
  O  O59  1  0.00000000  0.82836000  0.95506000  1
  O  O60  1  0.50000000  0.82836000  0.84126000  1
  O  O61  1  0.99978400  0.84468700  0.72933600  1
  O  O62  1  0.50555800  0.84836800  0.62142900  1
  O  O63  1  0.50000000  0.82836000  0.93115000  1
  O  O64  1  0.00000000  0.82836000  0.81736000  1
  O  O65  1  0.50057200  0.83280500  0.70491100  1
  O  O66  1  0.00047500  0.83500100  0.59497900  1
  O  O67  1  0.00000000  0.50000000  0.95668000  1
  O  O68  1  0.50000000  0.50000000  0.84289000  1
  O  O69  1  0.99950800  0.49998000  0.72830400  1
  O  O70  1  0.50307800  0.50143500  0.61704400  1
  O  O71  1  0.50000000  0.50000000  0.92952000  1
  O  O72  1  0.00000000  0.50000000  0.81573000  1
  O  O73  1  0.49978100  0.50012900  0.70196900  1
  O  O74  1  0.99768100  0.50496800  0.59300600  1
  O  O75  1  0.30966000  1.00000000  1.00000000  1
  O  O76  1  0.80966000  1.00000000  0.88621000  1
  O  O77  1  0.30966000  1.00000000  0.77241000  1
  O  O78  1  0.81721500  0.99654400  0.66281300  1
  O  O79  1  0.32911400  0.98289000  0.54829600  1
  O  O80  1  0.69034000  1.00000000  0.00000000  1
  O  O81  1  0.19034000  1.00000000  0.88621000  1
  O  O82  1  0.69034000  1.00000000  0.77241000  1
  O  O83  1  0.18339600  0.99577000  0.66268600  1
  O  O84  1  0.68975800  0.99014500  0.54857800  1
