# generated using pymatgen
data_MgTiMnVZnCrFeCoCuNiSb20ClO54
_symmetry_space_group_name_H-M   'P 1'
_cell_length_a   6.64504600
_cell_length_b   9.62117700
_cell_length_c   29.24077400
_cell_angle_alpha   89.93217900
_cell_angle_beta   89.98470100
_cell_angle_gamma   89.99403200
_symmetry_Int_Tables_number   1
_chemical_formula_structural   MgTiMnVZnCrFeCoCuNiSb20ClO54
_chemical_formula_sum
'Mg1 Ti1 Mn1 V1 Zn1 Cr1 Fe1 Co1 Cu1 Ni1 Sb20 Cl1 O54'
_cell_volume   1869.45380559
_cell_formula_units_Z   1
loop_
 _symmetry_equiv_pos_site_id
 _symmetry_equiv_pos_as_xyz
  1  'x, y, z'
loop_
 _atom_site_type_symbol
 _atom_site_label
 _atom_site_symmetry_multiplicity
 _atom_site_fract_x
 _atom_site_fract_y
 _atom_site_fract_z
 _atom_site_occupancy
  Mg  Mg0  1  0.50000000  0.83232000  0.00000000  1
  Ti  Ti1  1  0.49996600  0.33544300  0.34375000  1
  Mn  Mn2  1  0.00000000  0.66768000  0.22759000  1
  V  V3  1  0.50000000  0.83232000  0.22759000  1
  Zn  Zn4  1  0.00000000  0.66768000  0.00000000  1
  Cr  Cr5  1  0.99989600  0.81596200  0.33490100  1
  Fe  Fe6  1  0.00000000  0.50000000  0.11379000  1
  Co  Co7  1  0.99919500  0.50062900  0.33740800  1
  Cu  Cu8  1  0.00000000  0.00000000  0.00000000  1
  Ni  Ni9  1  0.49772200  0.49768500  0.44574500  1
  Sb  Sb10  1  0.50000000  0.00000000  0.11379000  1
  Sb  Sb11  1  0.00000000  1.00000000  0.22759000  1
  Sb  Sb12  1  0.49993900  0.99972800  0.34228300  1
  Sb  Sb13  1  0.99511500  0.98687700  0.42583000  1
  Sb  Sb14  1  0.50000000  0.50000000  0.00000000  1
  Sb  Sb15  1  0.50000000  0.50000000  0.22759000  1
  Sb  Sb16  1  0.00000000  0.33232000  0.00000000  1
  Sb  Sb17  1  0.50000000  0.33232000  0.11379000  1
  Sb  Sb18  1  0.00000000  0.33232000  0.22759000  1
  Sb  Sb19  1  0.99999200  0.34624300  0.45876200  1
  Sb  Sb20  1  0.00000000  0.83232000  0.11379000  1
  Sb  Sb21  1  0.49617500  0.79610200  0.46321200  1
  Sb  Sb22  1  0.50000000  0.16768000  0.00000000  1
  Sb  Sb23  1  0.00000000  0.16768000  0.11379000  1
  Sb  Sb24  1  0.50000000  0.16768000  0.22759000  1
  Sb  Sb25  1  0.00022700  0.17959900  0.33976800  1
  Sb  Sb26  1  0.49721600  0.17875400  0.45828900  1
  Sb  Sb27  1  0.50000000  0.66768000  0.11379000  1
  Sb  Sb28  1  0.49953800  0.66606600  0.34048500  1
  Sb  Sb29  1  0.00025900  0.65365700  0.45232000  1
  Cl  Cl30  1  0.48119200  0.54492700  0.52227500  1
  O  O31  1  0.00000000  0.17164000  0.04494000  1
  O  O32  1  0.50000000  0.17164000  0.15874000  1
  O  O33  1  0.00019600  0.15525700  0.27065200  1
  O  O34  1  0.50161100  0.16541400  0.38548800  1
  O  O35  1  0.50000000  0.17164000  0.06885000  1
  O  O36  1  0.00000000  0.17164000  0.18264000  1
  O  O37  1  0.49827500  0.16579100  0.29684400  1
  O  O38  1  0.99536000  0.18668000  0.40866200  1
  O  O39  1  0.69747000  0.67164000  1.00000000  1
  O  O40  1  0.19747000  0.67164000  0.11379000  1
  O  O41  1  0.69747000  0.67164000  0.22759000  1
  O  O42  1  0.19640900  0.66778200  0.33423200  1
  O  O43  1  0.69303100  0.65731300  0.43855700  1
  O  O44  1  0.30253000  0.67164000  0.00000000  1
  O  O45  1  0.80253000  0.67164000  0.11379000  1
  O  O46  1  0.30253000  0.67164000  0.22759000  1
  O  O47  1  0.80310400  0.66769100  0.33401200  1
  O  O48  1  0.30539900  0.65734100  0.43588400  1
  O  O49  1  0.69747000  0.32836000  1.00000000  1
  O  O50  1  0.19747000  0.32836000  0.11379000  1
  O  O51  1  0.69747000  0.32836000  0.22759000  1
  O  O52  1  0.20185400  0.32819400  0.33696400  1
  O  O53  1  0.69202300  0.33458500  0.44750400  1
  O  O54  1  0.30253000  0.32836000  0.00000000  1
  O  O55  1  0.80253000  0.32836000  0.11379000  1
  O  O56  1  0.30253000  0.32836000  0.22759000  1
  O  O57  1  0.79668600  0.32681400  0.33634300  1
  O  O58  1  0.30437700  0.33449600  0.44415000  1
  O  O59  1  0.00000000  0.82836000  0.04494000  1
  O  O60  1  0.50000000  0.82836000  0.15874000  1
  O  O61  1  0.00021600  0.84468700  0.27066400  1
  O  O62  1  0.50029200  0.83715500  0.38530100  1
  O  O63  1  0.50000000  0.82836000  0.06885000  1
  O  O64  1  0.00000000  0.82836000  0.18264000  1
  O  O65  1  0.49989200  0.83871300  0.29428600  1
  O  O66  1  0.99627100  0.80007300  0.40085100  1
  O  O67  1  0.00000000  0.50000000  0.04332000  1
  O  O68  1  0.50000000  0.50000000  0.15711000  1
  O  O69  1  0.00049200  0.49998000  0.27169600  1
  O  O70  1  0.50460600  0.49114200  0.37952600  1
  O  O71  1  0.50000000  0.50000000  0.07048000  1
  O  O72  1  0.00000000  0.50000000  0.18427000  1
  O  O73  1  0.49850600  0.49133100  0.29676100  1
  O  O74  1  0.99551600  0.49217600  0.40756200  1
  O  O75  1  0.69034000  1.00000000  1.00000000  1
  O  O76  1  0.19034000  0.00000000  0.11379000  1
  O  O77  1  0.69034000  1.00000000  0.22759000  1
  O  O78  1  0.18320600  0.00005400  0.34824400  1
  O  O79  1  0.74581000  0.99011800  0.45734000  1
  O  O80  1  0.30966000  0.00000000  0.00000000  1
  O  O81  1  0.80966000  1.00000000  0.11379000  1
  O  O82  1  0.30966000  0.00000000  0.22759000  1
  O  O83  1  0.81742500  0.99964500  0.34794100  1
  O  O84  1  0.24331200  0.98978400  0.45759200  1
