# generated using pymatgen
data_MgTiMnVZnCrFeCoCuNiSb20ClO54
_symmetry_space_group_name_H-M   'P 1'
_cell_length_a   6.64361900
_cell_length_b   9.59472500
_cell_length_c   29.34359600
_cell_angle_alpha   90.10060100
_cell_angle_beta   89.96811700
_cell_angle_gamma   89.98774600
_symmetry_Int_Tables_number   1
_chemical_formula_structural   MgTiMnVZnCrFeCoCuNiSb20ClO54
_chemical_formula_sum
'Mg1 Ti1 Mn1 V1 Zn1 Cr1 Fe1 Co1 Cu1 Ni1 Sb20 Cl1 O54'
_cell_volume   1870.46608540
_cell_formula_units_Z   1
loop_
 _symmetry_equiv_pos_site_id
 _symmetry_equiv_pos_as_xyz
  1  'x, y, z'
loop_
 _atom_site_type_symbol
 _atom_site_label
 _atom_site_symmetry_multiplicity
 _atom_site_fract_x
 _atom_site_fract_y
 _atom_site_fract_z
 _atom_site_occupancy
  Mg  Mg0  1  0.50000000  0.83232000  0.77241000  1
  Ti  Ti1  1  1.00000000  0.33232000  1.00000000  1
  Mn  Mn2  1  1.00000000  0.50000000  0.88621000  1
  V  V3  1  1.00000000  0.66768000  0.77241000  1
  Zn  Zn4  1  0.00139200  0.00115100  0.55909800  1
  Cr  Cr5  1  0.49993000  0.66615800  0.65856400  1
  Fe  Fe6  1  0.50101100  0.16541100  0.55012200  1
  Co  Co7  1  0.00000000  0.83232000  0.88621000  1
  Cu  Cu8  1  0.00005000  0.82735300  0.66013600  1
  Ni  Ni9  1  0.50336500  0.48768100  0.55168700  1
  Sb  Sb10  1  0.00000000  0.00000000  0.00000000  1
  Sb  Sb11  1  0.50000000  0.00000000  0.88621000  1
  Sb  Sb12  1  1.00000000  0.00000000  0.77241000  1
  Sb  Sb13  1  0.50022700  0.98834700  0.65966300  1
  Sb  Sb14  1  0.50000000  0.50000000  1.00000000  1
  Sb  Sb15  1  0.50000000  0.50000000  0.77241000  1
  Sb  Sb16  1  0.00040800  0.51552400  0.65910300  1
  Sb  Sb17  1  0.50000000  0.33232000  0.88621000  1
  Sb  Sb18  1  1.00000000  0.33232000  0.77241000  1
  Sb  Sb19  1  0.50012500  0.33674100  0.65591100  1
  Sb  Sb20  1  0.00126700  0.32890600  0.54291200  1
  Sb  Sb21  1  0.50000000  0.83232000  1.00000000  1
  Sb  Sb22  1  0.50283000  0.82240300  0.54473800  1
  Sb  Sb23  1  0.50000000  0.16768000  1.00000000  1
  Sb  Sb24  1  0.00000000  0.16768000  0.88621000  1
  Sb  Sb25  1  0.50000000  0.16768000  0.77241000  1
  Sb  Sb26  1  0.00037300  0.16088400  0.65767400  1
  Sb  Sb27  1  1.00000000  0.66768000  1.00000000  1
  Sb  Sb28  1  0.50000000  0.66768000  0.88621000  1
  Sb  Sb29  1  0.00285500  0.66684800  0.54492400  1
  Cl  Cl30  1  0.51044500  0.48759100  0.47808700  1
  O  O31  1  1.00000000  0.17164000  0.95506000  1
  O  O32  1  0.50000000  0.17164000  0.84126000  1
  O  O33  1  0.99980400  0.15525700  0.72934800  1
  O  O34  1  0.49988200  0.16161300  0.61888500  1
  O  O35  1  0.50000000  0.17164000  0.93115000  1
  O  O36  1  0.00000000  0.17164000  0.81736000  1
  O  O37  1  0.50052500  0.17139700  0.70392400  1
  O  O38  1  0.00304400  0.18135200  0.59162100  1
  O  O39  1  0.30253000  0.67164000  1.00000000  1
  O  O40  1  0.80253000  0.67164000  0.88621000  1
  O  O41  1  0.30253000  0.67164000  0.77241000  1
  O  O42  1  0.79455900  0.66051500  0.65777200  1
  O  O43  1  0.31725700  0.64769200  0.55196000  1
  O  O44  1  0.69747000  0.67164000  1.00000000  1
  O  O45  1  0.19747000  0.67164000  0.88621000  1
  O  O46  1  0.69747000  0.67164000  0.77241000  1
  O  O47  1  0.20464500  0.66145200  0.65830800  1
  O  O48  1  0.68937900  0.64841600  0.55306400  1
  O  O49  1  0.30253000  0.32836000  1.00000000  1
  O  O50  1  0.80253000  0.32836000  0.88621000  1
  O  O51  1  0.30253000  0.32836000  0.77241000  1
  O  O52  1  0.81116000  0.33269500  0.66281700  1
  O  O53  1  0.32352400  0.32164800  0.55134200  1
  O  O54  1  0.69747000  0.32836000  1.00000000  1
  O  O55  1  0.19747000  0.32836000  0.88621000  1
  O  O56  1  0.69747000  0.32836000  0.77241000  1
  O  O57  1  0.18944000  0.33235000  0.66330600  1
  O  O58  1  0.68055600  0.32097100  0.55275900  1
  O  O59  1  1.00000000  0.82836000  0.95506000  1
  O  O60  1  0.50000000  0.82836000  0.84126000  1
  O  O61  1  0.99978400  0.84468700  0.72933600  1
  O  O62  1  0.50014500  0.83135600  0.61448500  1
  O  O63  1  0.50000000  0.82836000  0.93115000  1
  O  O64  1  0.00000000  0.82836000  0.81736000  1
  O  O65  1  0.50005800  0.82652500  0.70050700  1
  O  O66  1  0.00407500  0.82254100  0.58839700  1
  O  O67  1  1.00000000  0.50000000  0.95668000  1
  O  O68  1  0.50000000  0.50000000  0.84289000  1
  O  O69  1  0.99950800  0.49998000  0.72830400  1
  O  O70  1  0.49696300  0.49941400  0.61621400  1
  O  O71  1  0.50000000  0.50000000  0.92952000  1
  O  O72  1  1.00000000  0.50000000  0.81573000  1
  O  O73  1  0.50013000  0.49565600  0.70223900  1
  O  O74  1  0.00331000  0.49251000  0.58894200  1
  O  O75  1  0.30966000  1.00000000  1.00000000  1
  O  O76  1  0.80966000  0.00000000  0.88621000  1
  O  O77  1  0.30966000  1.00000000  0.77241000  1
  O  O78  1  0.80388200  0.00490600  0.65838200  1
  O  O79  1  0.30184800  0.03397300  0.54339000  1
  O  O80  1  0.69034000  0.00000000  0.00000000  1
  O  O81  1  0.19034000  1.00000000  0.88621000  1
  O  O82  1  0.69034000  0.00000000  0.77241000  1
  O  O83  1  0.19680000  0.00510000  0.65884600  1
  O  O84  1  0.70108400  0.03376700  0.54370100  1
