# generated using pymatgen
data_MgTiMnVZnCrFeCoCuNiSb20ClO54
_symmetry_space_group_name_H-M   'P 1'
_cell_length_a   6.61924900
_cell_length_b   9.61799700
_cell_length_c   28.91202400
_cell_angle_alpha   90.29432800
_cell_angle_beta   89.98352700
_cell_angle_gamma   89.98964300
_symmetry_Int_Tables_number   1
_chemical_formula_structural   MgTiMnVZnCrFeCoCuNiSb20ClO54
_chemical_formula_sum
'Mg1 Ti1 Mn1 V1 Zn1 Cr1 Fe1 Co1 Cu1 Ni1 Sb20 Cl1 O54'
_cell_volume   1840.62830414
_cell_formula_units_Z   1
loop_
 _symmetry_equiv_pos_site_id
 _symmetry_equiv_pos_as_xyz
  1  'x, y, z'
loop_
 _atom_site_type_symbol
 _atom_site_label
 _atom_site_symmetry_multiplicity
 _atom_site_fract_x
 _atom_site_fract_y
 _atom_site_fract_z
 _atom_site_occupancy
  Mg  Mg0  1  0.49960500  0.33854900  0.34588700  1
  Ti  Ti1  1  1.00000000  0.00000000  0.22759000  1
  Mn  Mn2  1  0.50000000  0.83232000  0.22759000  1
  V  V3  1  1.00000000  0.33232000  0.22759000  1
  Zn  Zn4  1  1.00000000  0.50000000  0.11379000  1
  Cr  Cr5  1  1.00000000  0.16768000  0.11379000  1
  Fe  Fe6  1  1.00000000  0.66768000  0.00000000  1
  Co  Co7  1  0.99728400  0.67468300  0.44826200  1
  Cu  Cu8  1  0.50000000  0.50000000  0.22759000  1
  Ni  Ni9  1  0.49796600  0.50551000  0.44955300  1
  Sb  Sb10  1  0.00000000  0.00000000  0.00000000  1
  Sb  Sb11  1  0.50000000  0.00000000  0.11379000  1
  Sb  Sb12  1  0.50072900  0.00935300  0.34130900  1
  Sb  Sb13  1  0.99808600  0.01057300  0.46275500  1
  Sb  Sb14  1  0.50000000  0.50000000  0.00000000  1
  Sb  Sb15  1  0.99913000  0.49359200  0.34025300  1
  Sb  Sb16  1  1.00000000  0.33232000  0.00000000  1
  Sb  Sb17  1  0.50000000  0.33232000  0.11379000  1
  Sb  Sb18  1  0.99968900  0.35325100  0.45635600  1
  Sb  Sb19  1  0.50000000  0.83232000  0.00000000  1
  Sb  Sb20  1  0.00000000  0.83232000  0.11379000  1
  Sb  Sb21  1  0.00132300  0.83596600  0.34432900  1
  Sb  Sb22  1  0.49798100  0.81392900  0.45286700  1
  Sb  Sb23  1  0.50000000  0.16768000  0.00000000  1
  Sb  Sb24  1  0.50000000  0.16768000  0.22759000  1
  Sb  Sb25  1  0.00013400  0.17626900  0.34002200  1
  Sb  Sb26  1  0.49794000  0.19967000  0.45986700  1
  Sb  Sb27  1  0.50000000  0.66768000  0.11379000  1
  Sb  Sb28  1  1.00000000  0.66768000  0.22759000  1
  Sb  Sb29  1  0.50017300  0.65530900  0.33555100  1
  Cl  Cl30  1  0.49264400  0.45044000  0.52467200  1
  O  O31  1  1.00000000  0.17164000  0.04494000  1
  O  O32  1  0.50000000  0.17164000  0.15874000  1
  O  O33  1  0.00019600  0.15525700  0.27065200  1
  O  O34  1  0.50242400  0.15366000  0.38899100  1
  O  O35  1  0.50000000  0.17164000  0.06885000  1
  O  O36  1  1.00000000  0.17164000  0.18264000  1
  O  O37  1  0.49987300  0.16648500  0.29755800  1
  O  O38  1  0.99989800  0.16944500  0.41139800  1
  O  O39  1  0.69747000  0.67164000  0.00000000  1
  O  O40  1  0.19747000  0.67164000  0.11379000  1
  O  O41  1  0.69747000  0.67164000  0.22759000  1
  O  O42  1  0.19222900  0.65868800  0.33918600  1
  O  O43  1  0.70579800  0.66426000  0.45774900  1
  O  O44  1  0.30253000  0.67164000  0.00000000  1
  O  O45  1  0.80253000  0.67164000  0.11379000  1
  O  O46  1  0.30253000  0.67164000  0.22759000  1
  O  O47  1  0.80797000  0.66020100  0.33888700  1
  O  O48  1  0.28891200  0.66466800  0.45666900  1
  O  O49  1  0.69747000  0.32836000  0.00000000  1
  O  O50  1  0.19747000  0.32836000  0.11379000  1
  O  O51  1  0.69747000  0.32836000  0.22759000  1
  O  O52  1  0.19361800  0.33342800  0.33980100  1
  O  O53  1  0.69563400  0.34655100  0.43889700  1
  O  O54  1  0.30253000  0.32836000  0.00000000  1
  O  O55  1  0.80253000  0.32836000  0.11379000  1
  O  O56  1  0.30253000  0.32836000  0.22759000  1
  O  O57  1  0.80571600  0.33287600  0.33979800  1
  O  O58  1  0.30254400  0.34689800  0.43751200  1
  O  O59  1  1.00000000  0.82836000  0.04494000  1
  O  O60  1  0.50000000  0.82836000  0.15874000  1
  O  O61  1  0.00021600  0.84468700  0.27066400  1
  O  O62  1  0.49987900  0.83209600  0.38332300  1
  O  O63  1  0.50000000  0.82836000  0.06885000  1
  O  O64  1  1.00000000  0.82836000  0.18264000  1
  O  O65  1  0.49929000  0.83798600  0.29840700  1
  O  O66  1  0.99843200  0.85168300  0.41728100  1
  O  O67  1  1.00000000  0.50000000  0.04332000  1
  O  O68  1  0.50000000  0.50000000  0.15711000  1
  O  O69  1  0.00049200  0.49998000  0.27169600  1
  O  O70  1  0.50287600  0.51891900  0.38411400  1
  O  O71  1  0.50000000  0.50000000  0.07048000  1
  O  O72  1  1.00000000  0.50000000  0.18427000  1
  O  O73  1  0.50044700  0.49724100  0.29448200  1
  O  O74  1  0.99624700  0.50732000  0.40881400  1
  O  O75  1  0.69034000  0.00000000  0.00000000  1
  O  O76  1  0.19034000  0.00000000  0.11379000  1
  O  O77  1  0.69034000  0.00000000  0.22759000  1
  O  O78  1  0.19695100  0.01477700  0.34219500  1
  O  O79  1  0.69319500  0.96422100  0.46680300  1
  O  O80  1  0.30966000  0.00000000  0.00000000  1
  O  O81  1  0.80966000  0.00000000  0.11379000  1
  O  O82  1  0.30966000  0.00000000  0.22759000  1
  O  O83  1  0.80446100  0.01383300  0.34166900  1
  O  O84  1  0.30261600  0.96344600  0.46716400  1
