# generated using pymatgen
data_MgTiMnVZnCrFeCoCuNiSb20ClO54
_symmetry_space_group_name_H-M   'P 1'
_cell_length_a   6.67164200
_cell_length_b   9.59361100
_cell_length_c   28.79537600
_cell_angle_alpha   90.01881300
_cell_angle_beta   89.96931100
_cell_angle_gamma   89.95245900
_symmetry_Int_Tables_number   1
_chemical_formula_structural   MgTiMnVZnCrFeCoCuNiSb20ClO54
_chemical_formula_sum
'Mg1 Ti1 Mn1 V1 Zn1 Cr1 Fe1 Co1 Cu1 Ni1 Sb20 Cl1 O54'
_cell_volume   1843.05101847
_cell_formula_units_Z   1
loop_
 _symmetry_equiv_pos_site_id
 _symmetry_equiv_pos_as_xyz
  1  'x, y, z'
loop_
 _atom_site_type_symbol
 _atom_site_label
 _atom_site_symmetry_multiplicity
 _atom_site_fract_x
 _atom_site_fract_y
 _atom_site_fract_z
 _atom_site_occupancy
  Mg  Mg0  1  0.50000000  0.83232000  0.00000000  1
  Ti  Ti1  1  0.49850000  0.33411100  0.65789800  1
  Mn  Mn2  1  0.00000000  0.66768000  0.00000000  1
  V  V3  1  0.50000000  0.16768000  0.00000000  1
  Zn  Zn4  1  0.00000000  0.00000000  0.77241000  1
  Cr  Cr5  1  0.00182000  0.81893600  0.67078000  1
  Fe  Fe6  1  0.50000000  0.66768000  0.88621000  1
  Co  Co7  1  0.00000000  0.66768000  0.77241000  1
  Cu  Cu8  1  0.00000000  0.00000000  0.00000000  1
  Ni  Ni9  1  0.50134600  0.49280100  0.54692900  1
  Sb  Sb10  1  0.50000000  0.00000000  0.88621000  1
  Sb  Sb11  1  0.49959700  0.00490600  0.65530700  1
  Sb  Sb12  1  0.00408200  0.98381000  0.57252400  1
  Sb  Sb13  1  0.50000000  0.50000000  0.00000000  1
  Sb  Sb14  1  1.00000000  0.50000000  0.88621000  1
  Sb  Sb15  1  0.50000000  0.50000000  0.77241000  1
  Sb  Sb16  1  0.00210400  0.50504300  0.65687200  1
  Sb  Sb17  1  1.00000000  0.33232000  0.00000000  1
  Sb  Sb18  1  0.50000000  0.33232000  0.88621000  1
  Sb  Sb19  1  0.00000000  0.33232000  0.77241000  1
  Sb  Sb20  1  0.99989600  0.31465300  0.52757000  1
  Sb  Sb21  1  0.00000000  0.83232000  0.88621000  1
  Sb  Sb22  1  0.50000000  0.83232000  0.77241000  1
  Sb  Sb23  1  0.50125300  0.80072800  0.53214600  1
  Sb  Sb24  1  1.00000000  0.16768000  0.88621000  1
  Sb  Sb25  1  0.50000000  0.16768000  0.77241000  1
  Sb  Sb26  1  0.99872700  0.16969400  0.66188100  1
  Sb  Sb27  1  0.50174500  0.17029400  0.53667300  1
  Sb  Sb28  1  0.50506000  0.66807800  0.64357900  1
  Sb  Sb29  1  0.99526800  0.66721300  0.53955100  1
  Cl  Cl30  1  0.52964800  0.56885800  0.47125400  1
  O  O31  1  0.00000000  0.17164000  0.95506000  1
  O  O32  1  0.50000000  0.17164000  0.84126000  1
  O  O33  1  0.99980400  0.15525700  0.72934800  1
  O  O34  1  0.49803500  0.16528800  0.61168400  1
  O  O35  1  0.50000000  0.17164000  0.93115000  1
  O  O36  1  0.00000000  0.17164000  0.81736000  1
  O  O37  1  0.50271100  0.16022800  0.70217500  1
  O  O38  1  0.00626300  0.18355600  0.59095600  1
  O  O39  1  0.30253000  0.67164000  0.00000000  1
  O  O40  1  0.80253000  0.67164000  0.88621000  1
  O  O41  1  0.30253000  0.67164000  0.77241000  1
  O  O42  1  0.81203500  0.68487400  0.66860200  1
  O  O43  1  0.30396500  0.65938100  0.55873100  1
  O  O44  1  0.69747000  0.67164000  0.00000000  1
  O  O45  1  0.19747000  0.67164000  0.88621000  1
  O  O46  1  0.69747000  0.67164000  0.77241000  1
  O  O47  1  0.18855900  0.68626500  0.66853000  1
  O  O48  1  0.69017200  0.65880000  0.56393000  1
  O  O49  1  0.30253000  0.32836000  0.00000000  1
  O  O50  1  0.80253000  0.32836000  0.88621000  1
  O  O51  1  0.30253000  0.32836000  0.77241000  1
  O  O52  1  0.79720300  0.31906100  0.66350300  1
  O  O53  1  0.30775900  0.32944800  0.53899900  1
  O  O54  1  0.69747000  0.32836000  0.00000000  1
  O  O55  1  0.19747000  0.32836000  0.88621000  1
  O  O56  1  0.69747000  0.32836000  0.77241000  1
  O  O57  1  0.20207000  0.31713800  0.66503900  1
  O  O58  1  0.69527400  0.32823600  0.54215200  1
  O  O59  1  0.00000000  0.82836000  0.95506000  1
  O  O60  1  0.50000000  0.82836000  0.84126000  1
  O  O61  1  0.99978400  0.84468700  0.72933600  1
  O  O62  1  0.49661700  0.86275600  0.60673700  1
  O  O63  1  0.50000000  0.82836000  0.93115000  1
  O  O64  1  0.00000000  0.82836000  0.81736000  1
  O  O65  1  0.50063500  0.84702800  0.70019400  1
  O  O66  1  0.00079400  0.79857200  0.59941800  1
  O  O67  1  0.00000000  0.50000000  0.95668000  1
  O  O68  1  0.50000000  0.50000000  0.84289000  1
  O  O69  1  0.99950800  0.49998000  0.72830400  1
  O  O70  1  0.49178800  0.45417900  0.61249700  1
  O  O71  1  0.50000000  0.50000000  0.92952000  1
  O  O72  1  1.00000000  0.50000000  0.81573000  1
  O  O73  1  0.49996500  0.48151500  0.70324600  1
  O  O74  1  0.00135500  0.48130900  0.56830500  1
  O  O75  1  0.30966000  1.00000000  0.00000000  1
  O  O76  1  0.80966000  0.00000000  0.88621000  1
  O  O77  1  0.30966000  1.00000000  0.77241000  1
  O  O78  1  0.81436400  0.00078600  0.65199700  1
  O  O79  1  0.24218900  0.98547500  0.53682600  1
  O  O80  1  0.69034000  0.00000000  0.00000000  1
  O  O81  1  0.19034000  1.00000000  0.88621000  1
  O  O82  1  0.69034000  0.00000000  0.77241000  1
  O  O83  1  0.18501700  0.00050000  0.65242800  1
  O  O84  1  0.76437400  0.98944900  0.53764100  1
