# generated using pymatgen
data_MgTiMnVZnCrFeCoCuNiSb20ClO54
_symmetry_space_group_name_H-M   'P 1'
_cell_length_a   6.70186400
_cell_length_b   9.47240200
_cell_length_c   29.62956800
_cell_angle_alpha   90.03049600
_cell_angle_beta   89.97277300
_cell_angle_gamma   89.89446000
_symmetry_Int_Tables_number   1
_chemical_formula_structural   MgTiMnVZnCrFeCoCuNiSb20ClO54
_chemical_formula_sum
'Mg1 Ti1 Mn1 V1 Zn1 Cr1 Fe1 Co1 Cu1 Ni1 Sb20 Cl1 O54'
_cell_volume   1880.96278590
_cell_formula_units_Z   1
loop_
 _symmetry_equiv_pos_site_id
 _symmetry_equiv_pos_as_xyz
  1  'x, y, z'
loop_
 _atom_site_type_symbol
 _atom_site_label
 _atom_site_symmetry_multiplicity
 _atom_site_fract_x
 _atom_site_fract_y
 _atom_site_fract_z
 _atom_site_occupancy
  Mg  Mg0  1  0.00042100  0.83551700  0.66174700  1
  Ti  Ti1  1  0.50000000  0.00000000  0.88621000  1
  Mn  Mn2  1  1.00000000  0.00000000  0.77241000  1
  V  V3  1  0.00000000  0.50000000  0.88621000  1
  Zn  Zn4  1  0.50000000  0.83232000  0.00000000  1
  Cr  Cr5  1  0.50042800  0.33607800  0.65825400  1
  Fe  Fe6  1  0.96899100  0.68066500  0.56407700  1
  Co  Co7  1  0.50419500  0.82249000  0.55288200  1
  Cu  Cu8  1  0.50000000  0.16768000  0.00000000  1
  Ni  Ni9  1  0.50159200  0.51064300  0.55210700  1
  Sb  Sb10  1  0.00000000  0.00000000  0.00000000  1
  Sb  Sb11  1  0.49902800  0.00720900  0.65861800  1
  Sb  Sb12  1  0.00517200  0.99028800  0.54484000  1
  Sb  Sb13  1  0.50000000  0.50000000  0.00000000  1
  Sb  Sb14  1  0.50000000  0.50000000  0.77241000  1
  Sb  Sb15  1  0.00297300  0.49985600  0.65692900  1
  Sb  Sb16  1  0.00000000  0.66768000  1.00000000  1
  Sb  Sb17  1  0.50000000  0.66768000  0.88621000  1
  Sb  Sb18  1  0.00000000  0.66768000  0.77241000  1
  Sb  Sb19  1  0.50011500  0.65953400  0.65705300  1
  Sb  Sb20  1  1.00000000  0.16768000  0.88621000  1
  Sb  Sb21  1  0.50000000  0.16768000  0.77241000  1
  Sb  Sb22  1  0.99655400  0.16408800  0.65958900  1
  Sb  Sb23  1  0.49850000  0.17235500  0.54549400  1
  Sb  Sb24  1  1.00000000  0.83232000  0.88621000  1
  Sb  Sb25  1  0.50000000  0.83232000  0.77241000  1
  Sb  Sb26  1  1.00000000  0.33232000  0.00000000  1
  Sb  Sb27  1  0.50000000  0.33232000  0.88621000  1
  Sb  Sb28  1  0.00000000  0.33232000  0.77241000  1
  Sb  Sb29  1  0.99341600  0.33650500  0.54207900  1
  Cl  Cl30  1  0.49451700  0.50096900  0.47967000  1
  O  O31  1  1.00000000  0.82836000  0.95506000  1
  O  O32  1  0.50000000  0.82836000  0.84126000  1
  O  O33  1  0.00019600  0.84474300  0.72934800  1
  O  O34  1  0.50322300  0.83397100  0.61921900  1
  O  O35  1  0.50000000  0.82836000  0.93115000  1
  O  O36  1  1.00000000  0.82836000  0.81736000  1
  O  O37  1  0.49907700  0.83011200  0.70395300  1
  O  O38  1  0.00737200  0.84718800  0.59364500  1
  O  O39  1  0.69747000  0.32836000  0.00000000  1
  O  O40  1  0.19747000  0.32836000  0.88621000  1
  O  O41  1  0.69747000  0.32836000  0.77241000  1
  O  O42  1  0.19571100  0.33204800  0.66189900  1
  O  O43  1  0.68386400  0.34823500  0.55672800  1
  O  O44  1  0.30253000  0.32836000  0.00000000  1
  O  O45  1  0.80253000  0.32836000  0.88621000  1
  O  O46  1  0.30253000  0.32836000  0.77241000  1
  O  O47  1  0.80424500  0.33582000  0.66244400  1
  O  O48  1  0.29369200  0.32692400  0.55599100  1
  O  O49  1  0.69747000  0.67164000  1.00000000  1
  O  O50  1  0.19747000  0.67164000  0.88621000  1
  O  O51  1  0.69747000  0.67164000  0.77241000  1
  O  O52  1  0.19583700  0.66087000  0.66184900  1
  O  O53  1  0.70325500  0.67582000  0.55194000  1
  O  O54  1  0.30253000  0.67164000  1.00000000  1
  O  O55  1  0.80253000  0.67164000  0.88621000  1
  O  O56  1  0.30253000  0.67164000  0.77241000  1
  O  O57  1  0.80528900  0.65920400  0.66121600  1
  O  O58  1  0.33218000  0.67684300  0.55143900  1
  O  O59  1  0.00000000  0.17164000  0.95506000  1
  O  O60  1  0.50000000  0.17164000  0.84126000  1
  O  O61  1  0.00021600  0.15531300  0.72933600  1
  O  O62  1  0.50613400  0.17114800  0.61677300  1
  O  O63  1  0.50000000  0.17164000  0.93115000  1
  O  O64  1  0.00000000  0.17164000  0.81736000  1
  O  O65  1  0.50009200  0.17371800  0.70369600  1
  O  O66  1  0.98130600  0.16501400  0.59014900  1
  O  O67  1  0.00000000  0.50000000  0.95668000  1
  O  O68  1  0.50000000  0.50000000  0.84289000  1
  O  O69  1  0.00049200  0.50002000  0.72830400  1
  O  O70  1  0.49450100  0.49494000  0.61703500  1
  O  O71  1  0.50000000  0.50000000  0.92952000  1
  O  O72  1  0.00000000  0.50000000  0.81573000  1
  O  O73  1  0.49842900  0.49577500  0.70224900  1
  O  O74  1  0.00743500  0.49519600  0.58976100  1
  O  O75  1  0.69034000  1.00000000  0.00000000  1
  O  O76  1  0.19034000  0.00000000  0.88621000  1
  O  O77  1  0.69034000  0.00000000  0.77241000  1
  O  O78  1  0.19849900  0.00799600  0.66092200  1
  O  O79  1  0.68682900  0.96522600  0.54864200  1
  O  O80  1  0.30966000  1.00000000  0.00000000  1
  O  O81  1  0.80966000  0.00000000  0.88621000  1
  O  O82  1  0.30966000  0.00000000  0.77241000  1
  O  O83  1  0.79918800  0.00552100  0.66208500  1
  O  O84  1  0.31453600  0.97898900  0.55152800  1
