# generated using pymatgen
data_MgTiMnVZnCrFeCoCuNiSb20ClO54
_symmetry_space_group_name_H-M   'P 1'
_cell_length_a   6.71313200
_cell_length_b   9.47903400
_cell_length_c   29.76302400
_cell_angle_alpha   89.87300200
_cell_angle_beta   89.75447100
_cell_angle_gamma   89.61470100
_symmetry_Int_Tables_number   1
_chemical_formula_structural   MgTiMnVZnCrFeCoCuNiSb20ClO54
_chemical_formula_sum
'Mg1 Ti1 Mn1 V1 Zn1 Cr1 Fe1 Co1 Cu1 Ni1 Sb20 Cl1 O54'
_cell_volume   1893.87571622
_cell_formula_units_Z   1
loop_
 _symmetry_equiv_pos_site_id
 _symmetry_equiv_pos_as_xyz
  1  'x, y, z'
loop_
 _atom_site_type_symbol
 _atom_site_label
 _atom_site_symmetry_multiplicity
 _atom_site_fract_x
 _atom_site_fract_y
 _atom_site_fract_z
 _atom_site_occupancy
  Mg  Mg0  1  0.51289700  0.82995700  0.55223000  1
  Ti  Ti1  1  0.95577700  0.33095000  0.56882900  1
  Mn  Mn2  1  0.50000000  0.16768000  0.77241000  1
  V  V3  1  0.50000000  0.33232000  0.88621000  1
  Zn  Zn4  1  1.00000000  0.33232000  0.77241000  1
  Cr  Cr5  1  0.00160600  0.83408600  0.65857900  1
  Fe  Fe6  1  0.50000000  0.50000000  1.00000000  1
  Co  Co7  1  0.50000000  0.50000000  0.77241000  1
  Cu  Cu8  1  0.50000000  0.16768000  1.00000000  1
  Ni  Ni9  1  0.52297100  0.52171300  0.54970100  1
  Sb  Sb10  1  0.00000000  0.00000000  0.00000000  1
  Sb  Sb11  1  0.50000000  0.00000000  0.88621000  1
  Sb  Sb12  1  1.00000000  0.00000000  0.77241000  1
  Sb  Sb13  1  0.50048200  0.00302500  0.65794900  1
  Sb  Sb14  1  0.00275000  0.99140700  0.54432700  1
  Sb  Sb15  1  1.00000000  0.50000000  0.88621000  1
  Sb  Sb16  1  0.00445900  0.51199300  0.66256900  1
  Sb  Sb17  1  1.00000000  0.33232000  1.00000000  1
  Sb  Sb18  1  0.50110400  0.33950100  0.66199300  1
  Sb  Sb19  1  0.50000000  0.83232000  1.00000000  1
  Sb  Sb20  1  1.00000000  0.83232000  0.88621000  1
  Sb  Sb21  1  0.50000000  0.83232000  0.77241000  1
  Sb  Sb22  1  1.00000000  0.16768000  0.88621000  1
  Sb  Sb23  1  0.99996900  0.15311100  0.66279400  1
  Sb  Sb24  1  0.48144400  0.16643400  0.54075400  1
  Sb  Sb25  1  1.00000000  0.66768000  1.00000000  1
  Sb  Sb26  1  0.50000000  0.66768000  0.88621000  1
  Sb  Sb27  1  1.00000000  0.66768000  0.77241000  1
  Sb  Sb28  1  0.50275200  0.66804600  0.65903300  1
  Sb  Sb29  1  0.01871600  0.66720300  0.54535100  1
  Cl  Cl30  1  0.48630500  0.50053400  0.47901800  1
  O  O31  1  1.00000000  0.17164000  0.95506000  1
  O  O32  1  0.50000000  0.17164000  0.84126000  1
  O  O33  1  0.99980400  0.15525700  0.72934800  1
  O  O34  1  0.49068000  0.17529200  0.61471100  1
  O  O35  1  0.50000000  0.17164000  0.93115000  1
  O  O36  1  1.00000000  0.17164000  0.81736000  1
  O  O37  1  0.50180700  0.16389000  0.70333100  1
  O  O38  1  0.98168700  0.14350500  0.59414200  1
  O  O39  1  0.30253000  0.67164000  1.00000000  1
  O  O40  1  0.80253000  0.67164000  0.88621000  1
  O  O41  1  0.30253000  0.67164000  0.77241000  1
  O  O42  1  0.80930100  0.67616700  0.66248000  1
  O  O43  1  0.33075500  0.66211400  0.55085500  1
  O  O44  1  0.69747000  0.67164000  1.00000000  1
  O  O45  1  0.19747000  0.67164000  0.88621000  1
  O  O46  1  0.69747000  0.67164000  0.77241000  1
  O  O47  1  0.19628200  0.67640500  0.66302300  1
  O  O48  1  0.71575900  0.67306500  0.55331800  1
  O  O49  1  0.30253000  0.32836000  1.00000000  1
  O  O50  1  0.80253000  0.32836000  0.88621000  1
  O  O51  1  0.30253000  0.32836000  0.77241000  1
  O  O52  1  0.81296700  0.33838900  0.65515800  1
  O  O53  1  0.12793200  0.30348700  0.52759300  1
  O  O54  1  0.69747000  0.32836000  1.00000000  1
  O  O55  1  0.19747000  0.32836000  0.88621000  1
  O  O56  1  0.69747000  0.32836000  0.77241000  1
  O  O57  1  0.19179400  0.33528000  0.65860700  1
  O  O58  1  0.70358900  0.36146800  0.55029800  1
  O  O59  1  1.00000000  0.82836000  0.95506000  1
  O  O60  1  0.50000000  0.82836000  0.84126000  1
  O  O61  1  0.99978400  0.84468700  0.72933600  1
  O  O62  1  0.50395300  0.83423800  0.61899100  1
  O  O63  1  0.50000000  0.82836000  0.93115000  1
  O  O64  1  1.00000000  0.82836000  0.81736000  1
  O  O65  1  0.49846200  0.83426100  0.70399900  1
  O  O66  1  0.01079500  0.83152800  0.59257900  1
  O  O67  1  1.00000000  0.50000000  0.95668000  1
  O  O68  1  0.50000000  0.50000000  0.84289000  1
  O  O69  1  0.99950800  0.49998000  0.72830400  1
  O  O70  1  0.49973300  0.50462100  0.61627500  1
  O  O71  1  0.50000000  0.50000000  0.92952000  1
  O  O72  1  1.00000000  0.50000000  0.81573000  1
  O  O73  1  0.50449000  0.50898100  0.70474300  1
  O  O74  1  0.02309400  0.51133000  0.59470100  1
  O  O75  1  0.30966000  0.00000000  0.00000000  1
  O  O76  1  0.80966000  0.00000000  0.88621000  1
  O  O77  1  0.30966000  0.00000000  0.77241000  1
  O  O78  1  0.80502800  0.98863400  0.66152900  1
  O  O79  1  0.30868200  0.99479500  0.55190300  1
  O  O80  1  0.69034000  0.00000000  0.00000000  1
  O  O81  1  0.19034000  0.00000000  0.88621000  1
  O  O82  1  0.69034000  0.00000000  0.77241000  1
  O  O83  1  0.19600000  0.98888400  0.66051800  1
  O  O84  1  0.68436400  0.00987700  0.54757200  1
