# generated using pymatgen
data_MgTiMnVZnCrFeCoCuNiSb20ClO54
_symmetry_space_group_name_H-M   'P 1'
_cell_length_a   6.69337800
_cell_length_b   9.60217100
_cell_length_c   29.53581100
_cell_angle_alpha   89.62679200
_cell_angle_beta   89.99788700
_cell_angle_gamma   89.97765700
_symmetry_Int_Tables_number   1
_chemical_formula_structural   MgTiMnVZnCrFeCoCuNiSb20ClO54
_chemical_formula_sum
'Mg1 Ti1 Mn1 V1 Zn1 Cr1 Fe1 Co1 Cu1 Ni1 Sb20 Cl1 O54'
_cell_volume   1898.25451489
_cell_formula_units_Z   1
loop_
 _symmetry_equiv_pos_site_id
 _symmetry_equiv_pos_as_xyz
  1  'x, y, z'
loop_
 _atom_site_type_symbol
 _atom_site_label
 _atom_site_symmetry_multiplicity
 _atom_site_fract_x
 _atom_site_fract_y
 _atom_site_fract_z
 _atom_site_occupancy
  Mg  Mg0  1  0.00090400  0.66046400  0.42297500  1
  Ti  Ti1  1  0.49739900  0.17759100  0.44760900  1
  Mn  Mn2  1  0.00056500  0.50445300  0.33726900  1
  V  V3  1  0.00000000  0.66768000  0.22759000  1
  Zn  Zn4  1  0.00000000  0.00000000  0.22759000  1
  Cr  Cr5  1  0.50000000  0.50000000  1.00000000  1
  Fe  Fe6  1  0.99990800  0.83004200  0.33221100  1
  Co  Co7  1  0.00004400  0.33413600  0.44015500  1
  Cu  Cu8  1  0.50000000  0.66768000  0.11379000  1
  Ni  Ni9  1  0.50252000  0.48213700  0.45016500  1
  Sb  Sb10  1  0.00000000  0.00000000  0.00000000  1
  Sb  Sb11  1  0.50000000  1.00000000  0.11379000  1
  Sb  Sb12  1  0.50001500  0.99445700  0.34101300  1
  Sb  Sb13  1  0.99724200  0.98937100  0.44740700  1
  Sb  Sb14  1  0.00000000  0.50000000  0.11379000  1
  Sb  Sb15  1  0.50000000  0.50000000  0.22759000  1
  Sb  Sb16  1  1.00000000  0.66768000  1.00000000  1
  Sb  Sb17  1  0.50012500  0.66157100  0.35012400  1
  Sb  Sb18  1  0.50000000  0.16768000  1.00000000  1
  Sb  Sb19  1  0.00000000  0.16768000  0.11379000  1
  Sb  Sb20  1  0.50000000  0.16768000  0.22759000  1
  Sb  Sb21  1  0.00047700  0.16375600  0.33780600  1
  Sb  Sb22  1  0.50000000  0.83232000  1.00000000  1
  Sb  Sb23  1  0.00000000  0.83232000  0.11379000  1
  Sb  Sb24  1  0.50000000  0.83232000  0.22759000  1
  Sb  Sb25  1  0.50060100  0.77747400  0.46474700  1
  Sb  Sb26  1  1.00000000  0.33232000  1.00000000  1
  Sb  Sb27  1  0.50000000  0.33232000  0.11379000  1
  Sb  Sb28  1  0.00000000  0.33232000  0.22759000  1
  Sb  Sb29  1  0.50007000  0.33193800  0.33917500  1
  Cl  Cl30  1  0.50154800  0.54621000  0.52311200  1
  O  O31  1  0.00000000  0.82836000  0.04494000  1
  O  O32  1  0.50000000  0.82836000  0.15874000  1
  O  O33  1  0.99980400  0.84474300  0.27065200  1
  O  O34  1  0.49981400  0.84275700  0.38696500  1
  O  O35  1  0.50000000  0.82836000  0.06885000  1
  O  O36  1  0.00000000  0.82836000  0.18264000  1
  O  O37  1  0.50047300  0.82893200  0.29768100  1
  O  O38  1  0.00046800  0.84970100  0.39688100  1
  O  O39  1  0.30253000  0.32836000  1.00000000  1
  O  O40  1  0.80253000  0.32836000  0.11379000  1
  O  O41  1  0.30253000  0.32836000  0.22759000  1
  O  O42  1  0.80524300  0.32864500  0.33389700  1
  O  O43  1  0.28464000  0.32725900  0.45258300  1
  O  O44  1  0.69747000  0.32836000  1.00000000  1
  O  O45  1  0.19747000  0.32836000  0.11379000  1
  O  O46  1  0.69747000  0.32836000  0.22759000  1
  O  O47  1  0.19554700  0.32906200  0.33349800  1
  O  O48  1  0.72142800  0.32826900  0.45283700  1
  O  O49  1  0.30253000  0.67164000  1.00000000  1
  O  O50  1  0.80253000  0.67164000  0.11379000  1
  O  O51  1  0.30253000  0.67164000  0.22759000  1
  O  O52  1  0.81000600  0.65786100  0.33896600  1
  O  O53  1  0.29817000  0.64838800  0.43959700  1
  O  O54  1  0.69747000  0.67164000  1.00000000  1
  O  O55  1  0.19747000  0.67164000  0.11379000  1
  O  O56  1  0.69747000  0.67164000  0.22759000  1
  O  O57  1  0.19083000  0.65766300  0.33884100  1
  O  O58  1  0.70417200  0.64849700  0.43971300  1
  O  O59  1  0.00000000  0.17164000  0.04494000  1
  O  O60  1  0.50000000  0.17164000  0.15874000  1
  O  O61  1  0.99978400  0.15531300  0.27066400  1
  O  O62  1  0.49776800  0.16857200  0.38110400  1
  O  O63  1  0.50000000  0.17164000  0.06885000  1
  O  O64  1  0.00000000  0.17164000  0.18264000  1
  O  O65  1  0.50033200  0.16796900  0.29554500  1
  O  O66  1  0.00441700  0.16066900  0.40490000  1
  O  O67  1  0.00000000  0.50000000  0.04332000  1
  O  O68  1  0.50000000  0.50000000  0.15711000  1
  O  O69  1  0.99950800  0.50002000  0.27169600  1
  O  O70  1  0.50111200  0.47654900  0.38505400  1
  O  O71  1  0.50000000  0.50000000  0.07048000  1
  O  O72  1  0.00000000  0.50000000  0.18427000  1
  O  O73  1  0.50115100  0.49736000  0.29669900  1
  O  O74  1  0.00219300  0.47661200  0.39699400  1
  O  O75  1  0.30966000  1.00000000  0.00000000  1
  O  O76  1  0.80966000  1.00000000  0.11379000  1
  O  O77  1  0.30966000  1.00000000  0.22759000  1
  O  O78  1  0.80052100  0.00323700  0.33599400  1
  O  O79  1  0.30783300  0.04404800  0.45450800  1
  O  O80  1  0.69034000  1.00000000  0.00000000  1
  O  O81  1  0.19034000  1.00000000  0.11379000  1
  O  O82  1  0.69034000  1.00000000  0.22759000  1
  O  O83  1  0.19962100  0.00253300  0.33566800  1
  O  O84  1  0.69490000  0.04319600  0.45263700  1
