# generated using pymatgen
data_MgTiMnVZnCrFeCoCuNiSb20ClO54
_symmetry_space_group_name_H-M   'P 1'
_cell_length_a   6.67346600
_cell_length_b   9.48225300
_cell_length_c   29.14589000
_cell_angle_alpha   90.01300900
_cell_angle_beta   89.97849200
_cell_angle_gamma   89.98270900
_symmetry_Int_Tables_number   1
_chemical_formula_structural   MgTiMnVZnCrFeCoCuNiSb20ClO54
_chemical_formula_sum
'Mg1 Ti1 Mn1 V1 Zn1 Cr1 Fe1 Co1 Cu1 Ni1 Sb20 Cl1 O54'
_cell_volume   1844.33688068
_cell_formula_units_Z   1
loop_
 _symmetry_equiv_pos_site_id
 _symmetry_equiv_pos_as_xyz
  1  'x, y, z'
loop_
 _atom_site_type_symbol
 _atom_site_label
 _atom_site_symmetry_multiplicity
 _atom_site_fract_x
 _atom_site_fract_y
 _atom_site_fract_z
 _atom_site_occupancy
  Mg  Mg0  1  0.00050500  0.49788300  0.34343800  1
  Ti  Ti1  1  1.00000000  1.00000000  0.22759000  1
  Mn  Mn2  1  0.50000000  0.16768000  0.00000000  1
  V  V3  1  1.00000000  0.83232000  0.11379000  1
  Zn  Zn4  1  1.00000000  0.16768000  0.11379000  1
  Cr  Cr5  1  0.00014900  0.17058900  0.33919300  1
  Fe  Fe6  1  0.50192900  0.17936300  0.44952000  1
  Co  Co7  1  0.50000000  0.66768000  0.11379000  1
  Cu  Cu8  1  0.50014200  0.66948500  0.34457300  1
  Ni  Ni9  1  0.50346400  0.49355200  0.44779400  1
  Sb  Sb10  1  0.00000000  0.00000000  0.00000000  1
  Sb  Sb11  1  0.50000000  1.00000000  0.11379000  1
  Sb  Sb12  1  0.50009100  0.99372300  0.34230200  1
  Sb  Sb13  1  0.00210100  0.01161200  0.45810000  1
  Sb  Sb14  1  0.50000000  0.50000000  1.00000000  1
  Sb  Sb15  1  1.00000000  0.50000000  0.11379000  1
  Sb  Sb16  1  0.50000000  0.50000000  0.22759000  1
  Sb  Sb17  1  1.00000000  0.66768000  0.00000000  1
  Sb  Sb18  1  0.00000000  0.66768000  0.22759000  1
  Sb  Sb19  1  0.00180600  0.66133300  0.45817600  1
  Sb  Sb20  1  0.50000000  0.16768000  0.22759000  1
  Sb  Sb21  1  0.50000000  0.83232000  0.00000000  1
  Sb  Sb22  1  0.50000000  0.83232000  0.22759000  1
  Sb  Sb23  1  0.00050300  0.82623300  0.34253200  1
  Sb  Sb24  1  0.50216500  0.82088600  0.45803100  1
  Sb  Sb25  1  1.00000000  0.33232000  0.00000000  1
  Sb  Sb26  1  0.50000000  0.33232000  0.11379000  1
  Sb  Sb27  1  1.00000000  0.33232000  0.22759000  1
  Sb  Sb28  1  0.50007000  0.33842800  0.34272800  1
  Sb  Sb29  1  0.00181800  0.32689100  0.45434300  1
  Cl  Cl30  1  0.51486300  0.50518100  0.52283400  1
  O  O31  1  0.00000000  0.82836000  0.04494000  1
  O  O32  1  0.50000000  0.82836000  0.15874000  1
  O  O33  1  0.99980400  0.84474300  0.27065200  1
  O  O34  1  0.49731000  0.84790500  0.38905700  1
  O  O35  1  0.50000000  0.82836000  0.06885000  1
  O  O36  1  1.00000000  0.82836000  0.18264000  1
  O  O37  1  0.50127300  0.83665900  0.29576400  1
  O  O38  1  0.00547000  0.83998800  0.41413300  1
  O  O39  1  0.30253000  0.32836000  0.00000000  1
  O  O40  1  0.80253000  0.32836000  0.11379000  1
  O  O41  1  0.30253000  0.32836000  0.22759000  1
  O  O42  1  0.80213900  0.32431300  0.33812300  1
  O  O43  1  0.32325900  0.32996400  0.44963800  1
  O  O44  1  0.69747000  0.32836000  0.00000000  1
  O  O45  1  0.19747000  0.32836000  0.11379000  1
  O  O46  1  0.69747000  0.32836000  0.22759000  1
  O  O47  1  0.19784100  0.32404400  0.33787300  1
  O  O48  1  0.68108800  0.33034700  0.44787800  1
  O  O49  1  0.30253000  0.67164000  0.00000000  1
  O  O50  1  0.80253000  0.67164000  0.11379000  1
  O  O51  1  0.30253000  0.67164000  0.22759000  1
  O  O52  1  0.80259300  0.67477400  0.34092000  1
  O  O53  1  0.31146000  0.65545800  0.44620600  1
  O  O54  1  0.69747000  0.67164000  0.00000000  1
  O  O55  1  0.19747000  0.67164000  0.11379000  1
  O  O56  1  0.69747000  0.67164000  0.22759000  1
  O  O57  1  0.19786400  0.67465100  0.34014600  1
  O  O58  1  0.69425900  0.65749600  0.44451700  1
  O  O59  1  0.00000000  0.17164000  0.04494000  1
  O  O60  1  0.50000000  0.17164000  0.15874000  1
  O  O61  1  0.99978400  0.15531300  0.27066400  1
  O  O62  1  0.49879600  0.16242900  0.38175400  1
  O  O63  1  0.50000000  0.17164000  0.06885000  1
  O  O64  1  1.00000000  0.17164000  0.18264000  1
  O  O65  1  0.50129700  0.16234400  0.29563900  1
  O  O66  1  0.00288500  0.16614600  0.40827100  1
  O  O67  1  1.00000000  0.50000000  0.04332000  1
  O  O68  1  0.50000000  0.50000000  0.15711000  1
  O  O69  1  0.99950800  0.50002000  0.27169600  1
  O  O70  1  0.49623700  0.49906700  0.38409300  1
  O  O71  1  0.50000000  0.50000000  0.07048000  1
  O  O72  1  1.00000000  0.50000000  0.18427000  1
  O  O73  1  0.50079700  0.49627300  0.29496200  1
  O  O74  1  0.00358800  0.49626200  0.41452000  1
  O  O75  1  0.30966000  0.00000000  1.00000000  1
  O  O76  1  0.80966000  1.00000000  0.11379000  1
  O  O77  1  0.30966000  0.00000000  0.22759000  1
  O  O78  1  0.80930300  0.99925800  0.34107100  1
  O  O79  1  0.31176900  0.04497900  0.45793100  1
  O  O80  1  0.69034000  1.00000000  0.00000000  1
  O  O81  1  0.19034000  0.00000000  0.11379000  1
  O  O82  1  0.69034000  1.00000000  0.22759000  1
  O  O83  1  0.19092700  0.99957000  0.34037900  1
  O  O84  1  0.69232000  0.04412800  0.45691100  1
