# generated using pymatgen
data_MgTiMnVZnCrFeCoCuNiSb20ClO54
_symmetry_space_group_name_H-M   'P 1'
_cell_length_a   6.70174900
_cell_length_b   9.59232600
_cell_length_c   29.86661800
_cell_angle_alpha   89.90809200
_cell_angle_beta   89.96704600
_cell_angle_gamma   89.99503100
_symmetry_Int_Tables_number   1
_chemical_formula_structural   MgTiMnVZnCrFeCoCuNiSb20ClO54
_chemical_formula_sum
'Mg1 Ti1 Mn1 V1 Zn1 Cr1 Fe1 Co1 Cu1 Ni1 Sb20 Cl1 O54'
_cell_volume   1919.98353048
_cell_formula_units_Z   1
loop_
 _symmetry_equiv_pos_site_id
 _symmetry_equiv_pos_as_xyz
  1  'x, y, z'
loop_
 _atom_site_type_symbol
 _atom_site_label
 _atom_site_symmetry_multiplicity
 _atom_site_fract_x
 _atom_site_fract_y
 _atom_site_fract_z
 _atom_site_occupancy
  Mg  Mg0  1  0.49903500  0.16299500  0.55245000  1
  Ti  Ti1  1  0.99486800  0.30785800  0.57199300  1
  Mn  Mn2  1  0.50000000  0.50000000  0.77241000  1
  V  V3  1  0.50000000  0.83232000  0.77241000  1
  Zn  Zn4  1  0.50139200  0.66209400  0.66227200  1
  Cr  Cr5  1  1.00000000  0.50000000  0.88621000  1
  Fe  Fe6  1  0.50498100  0.84576200  0.55866700  1
  Co  Co7  1  0.00174200  0.15835800  0.66460400  1
  Cu  Cu8  1  0.50000000  0.16768000  1.00000000  1
  Ni  Ni9  1  0.50497500  0.54514500  0.55306100  1
  Sb  Sb10  1  0.00000000  0.00000000  0.00000000  1
  Sb  Sb11  1  0.50000000  0.00000000  0.88621000  1
  Sb  Sb12  1  1.00000000  0.00000000  0.77241000  1
  Sb  Sb13  1  0.50121200  0.99596200  0.66287100  1
  Sb  Sb14  1  0.00732900  0.01108900  0.54764600  1
  Sb  Sb15  1  0.50000000  0.50000000  1.00000000  1
  Sb  Sb16  1  0.00229900  0.50544800  0.65978800  1
  Sb  Sb17  1  0.00000000  0.33232000  0.00000000  1
  Sb  Sb18  1  0.50000000  0.33232000  0.88621000  1
  Sb  Sb19  1  1.00000000  0.33232000  0.77241000  1
  Sb  Sb20  1  0.50143800  0.34560700  0.65891400  1
  Sb  Sb21  1  0.50000000  0.83232000  1.00000000  1
  Sb  Sb22  1  1.00000000  0.83232000  0.88621000  1
  Sb  Sb23  1  0.00082500  0.83466900  0.65934500  1
  Sb  Sb24  1  1.00000000  0.16768000  0.88621000  1
  Sb  Sb25  1  0.50000000  0.16768000  0.77241000  1
  Sb  Sb26  1  0.00000000  0.66768000  0.00000000  1
  Sb  Sb27  1  0.50000000  0.66768000  0.88621000  1
  Sb  Sb28  1  1.00000000  0.66768000  0.77241000  1
  Sb  Sb29  1  0.00593200  0.67039500  0.54617900  1
  Cl  Cl30  1  0.49438100  0.47497100  0.48566200  1
  O  O31  1  1.00000000  0.17164000  0.95506000  1
  O  O32  1  0.50000000  0.17164000  0.84126000  1
  O  O33  1  0.99980400  0.15525700  0.72934800  1
  O  O34  1  0.49996800  0.16774200  0.62177400  1
  O  O35  1  0.50000000  0.17164000  0.93115000  1
  O  O36  1  1.00000000  0.17164000  0.81736000  1
  O  O37  1  0.50190200  0.17051900  0.70481000  1
  O  O38  1  0.99749300  0.13178300  0.60225200  1
  O  O39  1  0.30253000  0.67164000  1.00000000  1
  O  O40  1  0.80253000  0.67164000  0.88621000  1
  O  O41  1  0.30253000  0.67164000  0.77241000  1
  O  O42  1  0.81231700  0.66865700  0.66357900  1
  O  O43  1  0.31579900  0.69923900  0.55459500  1
  O  O44  1  0.69747000  0.67164000  1.00000000  1
  O  O45  1  0.19747000  0.67164000  0.88621000  1
  O  O46  1  0.69747000  0.67164000  0.77241000  1
  O  O47  1  0.19088300  0.66946200  0.66392900  1
  O  O48  1  0.69095200  0.69858100  0.55446500  1
  O  O49  1  0.30253000  0.32836000  1.00000000  1
  O  O50  1  0.80253000  0.32836000  0.88621000  1
  O  O51  1  0.30253000  0.32836000  0.77241000  1
  O  O52  1  0.81302600  0.34037700  0.65673000  1
  O  O53  1  0.21444500  0.26390500  0.54259100  1
  O  O54  1  0.69747000  0.32836000  1.00000000  1
  O  O55  1  0.19747000  0.32836000  0.88621000  1
  O  O56  1  0.69747000  0.32836000  0.77241000  1
  O  O57  1  0.19055200  0.33965200  0.65831500  1
  O  O58  1  0.77155800  0.27006000  0.54380900  1
  O  O59  1  1.00000000  0.82836000  0.95506000  1
  O  O60  1  0.50000000  0.82836000  0.84126000  1
  O  O61  1  0.99978400  0.84468700  0.72933600  1
  O  O62  1  0.50228500  0.83574500  0.62414900  1
  O  O63  1  0.50000000  0.82836000  0.93115000  1
  O  O64  1  1.00000000  0.82836000  0.81736000  1
  O  O65  1  0.50219400  0.84384600  0.71237400  1
  O  O66  1  0.00284100  0.83429500  0.59217800  1
  O  O67  1  1.00000000  0.50000000  0.95668000  1
  O  O68  1  0.50000000  0.50000000  0.84289000  1
  O  O69  1  0.99950800  0.49998000  0.72830400  1
  O  O70  1  0.49738300  0.49831100  0.61606100  1
  O  O71  1  0.50000000  0.50000000  0.92952000  1
  O  O72  1  1.00000000  0.50000000  0.81573000  1
  O  O73  1  0.50402300  0.49039800  0.70659900  1
  O  O74  1  0.00350300  0.50988700  0.59187800  1
  O  O75  1  0.30966000  0.00000000  1.00000000  1
  O  O76  1  0.80966000  0.00000000  0.88621000  1
  O  O77  1  0.30966000  0.00000000  0.77241000  1
  O  O78  1  0.80568800  0.99299900  0.66686100  1
  O  O79  1  0.31925800  0.98383300  0.55235400  1
  O  O80  1  0.69034000  0.00000000  1.00000000  1
  O  O81  1  0.19034000  0.00000000  0.88621000  1
  O  O82  1  0.69034000  0.00000000  0.77241000  1
  O  O83  1  0.19700200  0.99264800  0.66679700  1
  O  O84  1  0.68601900  0.98247800  0.55132700  1
