# generated using pymatgen
data_MgTiMnVZnCrFeCoCuNiSb20ClO54
_symmetry_space_group_name_H-M   'P 1'
_cell_length_a   6.62797100
_cell_length_b   9.59078300
_cell_length_c   29.13451600
_cell_angle_alpha   90.05470100
_cell_angle_beta   89.84996900
_cell_angle_gamma   89.96427600
_symmetry_Int_Tables_number   1
_chemical_formula_structural   MgTiMnVZnCrFeCoCuNiSb20ClO54
_chemical_formula_sum
'Mg1 Ti1 Mn1 V1 Zn1 Cr1 Fe1 Co1 Cu1 Ni1 Sb20 Cl1 O54'
_cell_volume   1851.99879652
_cell_formula_units_Z   1
loop_
 _symmetry_equiv_pos_site_id
 _symmetry_equiv_pos_as_xyz
  1  'x, y, z'
loop_
 _atom_site_type_symbol
 _atom_site_label
 _atom_site_symmetry_multiplicity
 _atom_site_fract_x
 _atom_site_fract_y
 _atom_site_fract_z
 _atom_site_occupancy
  Mg  Mg0  1  0.00000000  0.00000000  0.00000000  1
  Ti  Ti1  1  0.49759200  0.68844800  0.34633700  1
  Mn  Mn2  1  0.99684700  0.16727800  0.33847000  1
  V  V3  1  0.00000000  0.66768000  0.22759000  1
  Zn  Zn4  1  1.00000000  0.50000000  0.11379000  1
  Cr  Cr5  1  0.50000000  0.16768000  0.22759000  1
  Fe  Fe6  1  0.49914100  0.00094400  0.34128100  1
  Co  Co7  1  0.50000000  0.16768000  1.00000000  1
  Cu  Cu8  1  0.00000000  0.66768000  0.00000000  1
  Ni  Ni9  1  0.50071000  0.50387500  0.44485200  1
  Sb  Sb10  1  0.50000000  1.00000000  0.11379000  1
  Sb  Sb11  1  1.00000000  0.00000000  0.22759000  1
  Sb  Sb12  1  0.00617900  0.00739000  0.42602600  1
  Sb  Sb13  1  0.50000000  0.50000000  1.00000000  1
  Sb  Sb14  1  0.50000000  0.50000000  0.22759000  1
  Sb  Sb15  1  0.99849700  0.49353200  0.34393100  1
  Sb  Sb16  1  0.50000000  0.66768000  0.11379000  1
  Sb  Sb17  1  0.00070800  0.67316500  0.46539600  1
  Sb  Sb18  1  0.00000000  0.16768000  0.11379000  1
  Sb  Sb19  1  0.49960000  0.18982500  0.45697900  1
  Sb  Sb20  1  0.50000000  0.83232000  0.00000000  1
  Sb  Sb21  1  0.00000000  0.83232000  0.11379000  1
  Sb  Sb22  1  0.50000000  0.83232000  0.22759000  1
  Sb  Sb23  1  0.99685000  0.83317200  0.33820900  1
  Sb  Sb24  1  0.50496500  0.81732500  0.46030900  1
  Sb  Sb25  1  0.00000000  0.33232000  1.00000000  1
  Sb  Sb26  1  0.50000000  0.33232000  0.11379000  1
  Sb  Sb27  1  0.00000000  0.33232000  0.22759000  1
  Sb  Sb28  1  0.49747400  0.32494000  0.33946200  1
  Sb  Sb29  1  0.99624100  0.33059600  0.46449400  1
  Cl  Cl30  1  0.51555800  0.50396400  0.52129100  1
  O  O31  1  0.00000000  0.82836000  0.04494000  1
  O  O32  1  0.50000000  0.82836000  0.15874000  1
  O  O33  1  0.99980400  0.84474300  0.27065200  1
  O  O34  1  0.49716100  0.83597900  0.38754500  1
  O  O35  1  0.50000000  0.82836000  0.06885000  1
  O  O36  1  0.00000000  0.82836000  0.18264000  1
  O  O37  1  0.49798700  0.83603100  0.29640200  1
  O  O38  1  0.00730900  0.80806700  0.40709000  1
  O  O39  1  0.30253000  0.32836000  1.00000000  1
  O  O40  1  0.80253000  0.32836000  0.11379000  1
  O  O41  1  0.30253000  0.32836000  0.22759000  1
  O  O42  1  0.80472400  0.31431200  0.33391200  1
  O  O43  1  0.29882700  0.34171200  0.44504900  1
  O  O44  1  0.69747000  0.32836000  1.00000000  1
  O  O45  1  0.19747000  0.32836000  0.11379000  1
  O  O46  1  0.69747000  0.32836000  0.22759000  1
  O  O47  1  0.19122200  0.31374800  0.33414000  1
  O  O48  1  0.69216400  0.34750700  0.44158000  1
  O  O49  1  0.30253000  0.67164000  0.00000000  1
  O  O50  1  0.80253000  0.67164000  0.11379000  1
  O  O51  1  0.30253000  0.67164000  0.22759000  1
  O  O52  1  0.79071200  0.68553900  0.33500300  1
  O  O53  1  0.30823600  0.66079600  0.44586000  1
  O  O54  1  0.69747000  0.67164000  0.00000000  1
  O  O55  1  0.19747000  0.67164000  0.11379000  1
  O  O56  1  0.69747000  0.67164000  0.22759000  1
  O  O57  1  0.20453100  0.68551300  0.33467000  1
  O  O58  1  0.70204300  0.66543500  0.44351800  1
  O  O59  1  1.00000000  0.17164000  0.04494000  1
  O  O60  1  0.50000000  0.17164000  0.15874000  1
  O  O61  1  0.99978400  0.15531300  0.27066400  1
  O  O62  1  0.49689800  0.16341000  0.38538900  1
  O  O63  1  0.50000000  0.17164000  0.06885000  1
  O  O64  1  0.00000000  0.17164000  0.18264000  1
  O  O65  1  0.49733900  0.15983300  0.29519300  1
  O  O66  1  0.99524100  0.20123300  0.40660300  1
  O  O67  1  0.00000000  0.50000000  0.04332000  1
  O  O68  1  0.50000000  0.50000000  0.15711000  1
  O  O69  1  0.99950800  0.50002000  0.27169600  1
  O  O70  1  0.49450000  0.50524600  0.37830700  1
  O  O71  1  0.50000000  0.50000000  0.07048000  1
  O  O72  1  0.00000000  0.50000000  0.18427000  1
  O  O73  1  0.49941800  0.49846000  0.29620000  1
  O  O74  1  0.00270700  0.50307800  0.42727300  1
  O  O75  1  0.30966000  0.00000000  0.00000000  1
  O  O76  1  0.80966000  1.00000000  0.11379000  1
  O  O77  1  0.30966000  0.00000000  0.22759000  1
  O  O78  1  0.81383000  0.00222000  0.34908000  1
  O  O79  1  0.24903100  0.00009400  0.46011000  1
  O  O80  1  0.69034000  1.00000000  0.00000000  1
  O  O81  1  0.19034000  0.00000000  0.11379000  1
  O  O82  1  0.69034000  1.00000000  0.22759000  1
  O  O83  1  0.17871300  0.00375100  0.35102900  1
  O  O84  1  0.75923800  0.99490400  0.45867100  1
