# generated using pymatgen
data_MgTiMnVZnCrFeCoCuNiSb20ClO54
_symmetry_space_group_name_H-M   'P 1'
_cell_length_a   6.59973500
_cell_length_b   9.73818800
_cell_length_c   29.35897700
_cell_angle_alpha   90.01133600
_cell_angle_beta   89.80761600
_cell_angle_gamma   89.92120000
_symmetry_Int_Tables_number   1
_chemical_formula_structural   MgTiMnVZnCrFeCoCuNiSb20ClO54
_chemical_formula_sum
'Mg1 Ti1 Mn1 V1 Zn1 Cr1 Fe1 Co1 Cu1 Ni1 Sb20 Cl1 O54'
_cell_volume   1886.87314332
_cell_formula_units_Z   1
loop_
 _symmetry_equiv_pos_site_id
 _symmetry_equiv_pos_as_xyz
  1  'x, y, z'
loop_
 _atom_site_type_symbol
 _atom_site_label
 _atom_site_symmetry_multiplicity
 _atom_site_fract_x
 _atom_site_fract_y
 _atom_site_fract_z
 _atom_site_occupancy
  Mg  Mg0  1  0.00000000  0.16768000  0.88621000  1
  Ti  Ti1  1  0.50403800  0.33367500  0.65775200  1
  Mn  Mn2  1  0.00912900  0.33061300  0.55476200  1
  V  V3  1  0.00000000  0.33232000  0.00000000  1
  Zn  Zn4  1  0.50000000  0.16768000  1.00000000  1
  Cr  Cr5  1  0.47175500  0.81755400  0.55307900  1
  Fe  Fe6  1  0.00000000  0.83232000  0.88621000  1
  Co  Co7  1  1.00000000  0.66768000  0.00000000  1
  Cu  Cu8  1  0.00356000  0.82818200  0.65904800  1
  Ni  Ni9  1  0.50055700  0.48370000  0.54751400  1
  Sb  Sb10  1  0.00000000  0.00000000  0.00000000  1
  Sb  Sb11  1  0.50000000  0.00000000  0.88621000  1
  Sb  Sb12  1  0.00000000  1.00000000  0.77241000  1
  Sb  Sb13  1  0.49800700  0.00415800  0.65910800  1
  Sb  Sb14  1  0.01954600  0.98962500  0.54373500  1
  Sb  Sb15  1  0.50000000  0.50000000  1.00000000  1
  Sb  Sb16  1  0.00000000  0.50000000  0.88621000  1
  Sb  Sb17  1  0.50000000  0.50000000  0.77241000  1
  Sb  Sb18  1  0.01706500  0.50417000  0.65525100  1
  Sb  Sb19  1  0.50000000  0.33232000  0.88621000  1
  Sb  Sb20  1  0.00000000  0.33232000  0.77241000  1
  Sb  Sb21  1  0.50000000  0.83232000  1.00000000  1
  Sb  Sb22  1  0.50000000  0.83232000  0.77241000  1
  Sb  Sb23  1  0.50000000  0.16768000  0.77241000  1
  Sb  Sb24  1  0.99632100  0.15821100  0.65720700  1
  Sb  Sb25  1  0.52300800  0.17868400  0.54332300  1
  Sb  Sb26  1  0.50000000  0.66768000  0.88621000  1
  Sb  Sb27  1  0.00000000  0.66768000  0.77241000  1
  Sb  Sb28  1  0.51728500  0.65041300  0.64690700  1
  Sb  Sb29  1  0.92097600  0.67027500  0.54359800  1
  Cl  Cl30  1  0.55798800  0.52411400  0.47517700  1
  O  O31  1  0.00000000  0.17164000  0.95506000  1
  O  O32  1  0.50000000  0.17164000  0.84126000  1
  O  O33  1  0.99980400  0.15525700  0.72934800  1
  O  O34  1  0.51095200  0.16543100  0.61435900  1
  O  O35  1  0.50000000  0.17164000  0.93115000  1
  O  O36  1  0.00000000  0.17164000  0.81736000  1
  O  O37  1  0.49569800  0.16722800  0.70304600  1
  O  O38  1  0.99017200  0.14991400  0.58826300  1
  O  O39  1  0.30253000  0.67164000  0.00000000  1
  O  O40  1  0.80253000  0.67164000  0.88621000  1
  O  O41  1  0.30253000  0.67164000  0.77241000  1
  O  O42  1  0.81724400  0.66142800  0.66128100  1
  O  O43  1  0.28194900  0.71090000  0.53947100  1
  O  O44  1  0.69747000  0.67164000  0.00000000  1
  O  O45  1  0.19747000  0.67164000  0.88621000  1
  O  O46  1  0.69747000  0.67164000  0.77241000  1
  O  O47  1  0.20944800  0.66666667  0.65759500  1
  O  O48  1  0.63203200  0.65426900  0.57088800  1
  O  O49  1  0.30253000  0.32836000  0.00000000  1
  O  O50  1  0.80253000  0.32836000  0.88621000  1
  O  O51  1  0.30253000  0.32836000  0.77241000  1
  O  O52  1  0.81013300  0.32562100  0.65819700  1
  O  O53  1  0.29407500  0.31275900  0.54076200  1
  O  O54  1  0.69747000  0.32836000  0.00000000  1
  O  O55  1  0.19747000  0.32836000  0.88621000  1
  O  O56  1  0.69747000  0.32836000  0.77241000  1
  O  O57  1  0.19384800  0.31762000  0.65927700  1
  O  O58  1  0.72561200  0.33809900  0.54893900  1
  O  O59  1  0.00000000  0.82836000  0.95506000  1
  O  O60  1  0.50000000  0.82836000  0.84126000  1
  O  O61  1  0.99978400  0.84468700  0.72933600  1
  O  O62  1  0.51198500  0.85061100  0.61454700  1
  O  O63  1  0.50000000  0.82836000  0.93115000  1
  O  O64  1  0.00000000  0.82836000  0.81736000  1
  O  O65  1  0.50242300  0.84039800  0.70270000  1
  O  O66  1  0.97016100  0.83403000  0.58693600  1
  O  O67  1  0.00000000  0.50000000  0.95668000  1
  O  O68  1  0.50000000  0.50000000  0.84289000  1
  O  O69  1  0.99950800  0.49998000  0.72830400  1
  O  O70  1  0.46895100  0.46123800  0.61317300  1
  O  O71  1  0.50000000  0.50000000  0.92952000  1
  O  O72  1  0.00000000  0.50000000  0.81573000  1
  O  O73  1  0.50750700  0.48121300  0.69819900  1
  O  O74  1  0.01505900  0.51197800  0.58536700  1
  O  O75  1  0.30966000  1.00000000  0.00000000  1
  O  O76  1  0.80966000  0.00000000  0.88621000  1
  O  O77  1  0.30966000  1.00000000  0.77241000  1
  O  O78  1  0.80006900  0.00436400  0.66225300  1
  O  O79  1  0.31656200  0.98389600  0.55258600  1
  O  O80  1  0.69034000  0.00000000  0.00000000  1
  O  O81  1  0.19034000  1.00000000  0.88621000  1
  O  O82  1  0.69034000  0.00000000  0.77241000  1
  O  O83  1  0.19551400  0.00339400  0.65899400  1
  O  O84  1  0.65061300  0.87221500  0.51910500  1
