# generated using pymatgen
data_MgTiMnVZnCrFeCoCuNiSb20ClO54
_symmetry_space_group_name_H-M   'P 1'
_cell_length_a   6.62083900
_cell_length_b   9.52461900
_cell_length_c   29.08511800
_cell_angle_alpha   89.67969300
_cell_angle_beta   89.98162200
_cell_angle_gamma   89.99314600
_symmetry_Int_Tables_number   1
_chemical_formula_structural   MgTiMnVZnCrFeCoCuNiSb20ClO54
_chemical_formula_sum
'Mg1 Ti1 Mn1 V1 Zn1 Cr1 Fe1 Co1 Cu1 Ni1 Sb20 Cl1 O54'
_cell_volume   1834.10695482
_cell_formula_units_Z   1
loop_
 _symmetry_equiv_pos_site_id
 _symmetry_equiv_pos_as_xyz
  1  'x, y, z'
loop_
 _atom_site_type_symbol
 _atom_site_label
 _atom_site_symmetry_multiplicity
 _atom_site_fract_x
 _atom_site_fract_y
 _atom_site_fract_z
 _atom_site_occupancy
  Mg  Mg0  1  0.50000000  0.16768000  0.77241000  1
  Ti  Ti1  1  0.00000000  0.66768000  0.00000000  1
  Mn  Mn2  1  0.00016700  0.83560600  0.65161800  1
  V  V3  1  0.49998100  0.83259200  0.54807300  1
  Zn  Zn4  1  0.50000000  0.83232000  0.00000000  1
  Cr  Cr5  1  0.00000000  0.00000000  0.00000000  1
  Fe  Fe6  1  0.50000000  0.50000000  0.00000000  1
  Co  Co7  1  0.50000000  0.33232000  0.88621000  1
  Cu  Cu8  1  1.00000000  0.50000000  0.88621000  1
  Ni  Ni9  1  0.49939800  0.51152100  0.54267600  1
  Sb  Sb10  1  0.50000000  0.00000000  0.88621000  1
  Sb  Sb11  1  1.00000000  0.00000000  0.77241000  1
  Sb  Sb12  1  0.50025600  0.00532700  0.65692800  1
  Sb  Sb13  1  0.99952200  0.98928200  0.52613100  1
  Sb  Sb14  1  0.50000000  0.50000000  0.77241000  1
  Sb  Sb15  1  0.99942100  0.50987700  0.64893500  1
  Sb  Sb16  1  0.50000000  0.66768000  0.88621000  1
  Sb  Sb17  1  1.00000000  0.66768000  0.77241000  1
  Sb  Sb18  1  0.49992200  0.67028100  0.65551400  1
  Sb  Sb19  1  0.99988600  0.68093300  0.52726300  1
  Sb  Sb20  1  0.50000000  0.16768000  0.00000000  1
  Sb  Sb21  1  1.00000000  0.16768000  0.88621000  1
  Sb  Sb22  1  0.00005000  0.15992900  0.64735900  1
  Sb  Sb23  1  0.50048300  0.20320700  0.53274900  1
  Sb  Sb24  1  1.00000000  0.83232000  0.88621000  1
  Sb  Sb25  1  0.50000000  0.83232000  0.77241000  1
  Sb  Sb26  1  0.00000000  0.33232000  0.00000000  1
  Sb  Sb27  1  1.00000000  0.33232000  0.77241000  1
  Sb  Sb28  1  0.50044000  0.33281600  0.65412100  1
  Sb  Sb29  1  0.00167400  0.34115400  0.52792400  1
  Cl  Cl30  1  0.49312700  0.42749200  0.46762700  1
  O  O31  1  1.00000000  0.82836000  0.95506000  1
  O  O32  1  0.50000000  0.82836000  0.84126000  1
  O  O33  1  0.00019600  0.84474300  0.72934800  1
  O  O34  1  0.50132300  0.83731300  0.61152900  1
  O  O35  1  0.50000000  0.82836000  0.93115000  1
  O  O36  1  1.00000000  0.82836000  0.81736000  1
  O  O37  1  0.49983300  0.83440100  0.70226900  1
  O  O38  1  0.99964800  0.83512300  0.57619800  1
  O  O39  1  0.69747000  0.32836000  1.00000000  1
  O  O40  1  0.19747000  0.32836000  0.88621000  1
  O  O41  1  0.69747000  0.32836000  0.77241000  1
  O  O42  1  0.21090200  0.33440400  0.66286900  1
  O  O43  1  0.70432900  0.34522500  0.55407600  1
  O  O44  1  0.30253000  0.32836000  0.00000000  1
  O  O45  1  0.80253000  0.32836000  0.88621000  1
  O  O46  1  0.30253000  0.32836000  0.77241000  1
  O  O47  1  0.78957000  0.33473700  0.66320800  1
  O  O48  1  0.29689300  0.34395700  0.55524600  1
  O  O49  1  0.69747000  0.67164000  1.00000000  1
  O  O50  1  0.19747000  0.67164000  0.88621000  1
  O  O51  1  0.69747000  0.67164000  0.77241000  1
  O  O52  1  0.20018000  0.68658300  0.65827100  1
  O  O53  1  0.67869300  0.68371800  0.53831000  1
  O  O54  1  0.30253000  0.67164000  0.00000000  1
  O  O55  1  0.80253000  0.67164000  0.88621000  1
  O  O56  1  0.30253000  0.67164000  0.77241000  1
  O  O57  1  0.79981900  0.68658000  0.65851900  1
  O  O58  1  0.32093700  0.68420600  0.53920500  1
  O  O59  1  1.00000000  0.17164000  0.95506000  1
  O  O60  1  0.50000000  0.17164000  0.84126000  1
  O  O61  1  0.00021600  0.15531300  0.72933600  1
  O  O62  1  0.50218500  0.16476100  0.60949700  1
  O  O63  1  0.50000000  0.17164000  0.93115000  1
  O  O64  1  1.00000000  0.17164000  0.81736000  1
  O  O65  1  0.50000400  0.16553500  0.69968700  1
  O  O66  1  0.99942500  0.15591700  0.56834100  1
  O  O67  1  1.00000000  0.50000000  0.95668000  1
  O  O68  1  0.50000000  0.50000000  0.84289000  1
  O  O69  1  0.00049200  0.50002000  0.72830400  1
  O  O70  1  0.50237000  0.50827800  0.61300200  1
  O  O71  1  0.50000000  0.50000000  0.92952000  1
  O  O72  1  1.00000000  0.50000000  0.81573000  1
  O  O73  1  0.49943500  0.50789600  0.70156900  1
  O  O74  1  0.00018600  0.51472000  0.56930600  1
  O  O75  1  0.69034000  1.00000000  1.00000000  1
  O  O76  1  0.19034000  0.00000000  0.88621000  1
  O  O77  1  0.69034000  1.00000000  0.77241000  1
  O  O78  1  0.20176900  0.98565900  0.65424100  1
  O  O79  1  0.68725900  0.96198600  0.53699700  1
  O  O80  1  0.30966000  0.00000000  0.00000000  1
  O  O81  1  0.80966000  1.00000000  0.88621000  1
  O  O82  1  0.30966000  0.00000000  0.77241000  1
  O  O83  1  0.79912000  0.98547100  0.65457200  1
  O  O84  1  0.31288400  0.96169700  0.53698800  1
