# generated using pymatgen
data_MgTiMnVZnCrFeCoCuNiSb20ClO54
_symmetry_space_group_name_H-M   'P 1'
_cell_length_a   6.68048900
_cell_length_b   9.52579300
_cell_length_c   29.20987700
_cell_angle_alpha   89.96445400
_cell_angle_beta   89.53776100
_cell_angle_gamma   89.82895500
_symmetry_Int_Tables_number   1
_chemical_formula_structural   MgTiMnVZnCrFeCoCuNiSb20ClO54
_chemical_formula_sum
'Mg1 Ti1 Mn1 V1 Zn1 Cr1 Fe1 Co1 Cu1 Ni1 Sb20 Cl1 O54'
_cell_volume   1858.75853380
_cell_formula_units_Z   1
loop_
 _symmetry_equiv_pos_site_id
 _symmetry_equiv_pos_as_xyz
  1  'x, y, z'
loop_
 _atom_site_type_symbol
 _atom_site_label
 _atom_site_symmetry_multiplicity
 _atom_site_fract_x
 _atom_site_fract_y
 _atom_site_fract_z
 _atom_site_occupancy
  Mg  Mg0  1  0.00000000  1.00000000  0.22759000  1
  Ti  Ti1  1  0.00000000  0.50000000  0.11379000  1
  Mn  Mn2  1  0.50000000  0.50000000  0.22759000  1
  V  V3  1  0.49074200  0.15125400  0.44533200  1
  Zn  Zn4  1  0.49637400  0.34363800  0.33904500  1
  Cr  Cr5  1  0.49794700  0.82521800  0.44521100  1
  Fe  Fe6  1  0.00000000  0.83232000  0.11379000  1
  Co  Co7  1  0.50000000  0.16768000  1.00000000  1
  Cu  Cu8  1  0.00000000  0.16768000  0.11379000  1
  Ni  Ni9  1  0.51508600  0.52689800  0.45036000  1
  Sb  Sb10  1  0.00000000  0.00000000  0.00000000  1
  Sb  Sb11  1  0.50000000  1.00000000  0.11379000  1
  Sb  Sb12  1  0.49683600  0.00680100  0.33965200  1
  Sb  Sb13  1  0.99801800  0.99386700  0.45297800  1
  Sb  Sb14  1  0.50000000  0.50000000  1.00000000  1
  Sb  Sb15  1  0.00080000  0.48670600  0.35261800  1
  Sb  Sb16  1  0.00000000  0.66768000  0.00000000  1
  Sb  Sb17  1  0.50000000  0.66768000  0.11379000  1
  Sb  Sb18  1  0.00000000  0.66768000  0.22759000  1
  Sb  Sb19  1  0.49625500  0.65812400  0.33941700  1
  Sb  Sb20  1  0.99019600  0.66747200  0.46786000  1
  Sb  Sb21  1  0.50000000  0.16768000  0.22759000  1
  Sb  Sb22  1  0.99605800  0.17155300  0.33872300  1
  Sb  Sb23  1  0.50000000  0.83232000  1.00000000  1
  Sb  Sb24  1  0.50000000  0.83232000  0.22759000  1
  Sb  Sb25  1  0.99835300  0.83031600  0.33859800  1
  Sb  Sb26  1  0.00000000  0.33232000  1.00000000  1
  Sb  Sb27  1  0.50000000  0.33232000  0.11379000  1
  Sb  Sb28  1  0.00000000  0.33232000  0.22759000  1
  Sb  Sb29  1  0.98619400  0.30421500  0.47640300  1
  Cl  Cl30  1  0.64339000  0.48747600  0.52057100  1
  O  O31  1  0.00000000  0.82836000  0.04494000  1
  O  O32  1  0.50000000  0.82836000  0.15874000  1
  O  O33  1  0.99980400  0.84474300  0.27065200  1
  O  O34  1  0.48671900  0.82932400  0.38153300  1
  O  O35  1  0.50000000  0.82836000  0.06885000  1
  O  O36  1  0.00000000  0.82836000  0.18264000  1
  O  O37  1  0.50244600  0.83585700  0.29610200  1
  O  O38  1  0.01062300  0.82702700  0.40920200  1
  O  O39  1  0.30253000  0.32836000  1.00000000  1
  O  O40  1  0.80253000  0.32836000  0.11379000  1
  O  O41  1  0.30253000  0.32836000  0.22759000  1
  O  O42  1  0.80088800  0.32353800  0.34250800  1
  O  O43  1  0.30469700  0.26119600  0.46472600  1
  O  O44  1  0.69747000  0.32836000  1.00000000  1
  O  O45  1  0.19747000  0.32836000  0.11379000  1
  O  O46  1  0.69747000  0.32836000  0.22759000  1
  O  O47  1  0.19580200  0.32192100  0.33816800  1
  O  O48  1  0.69429400  0.25832800  0.45690500  1
  O  O49  1  0.30253000  0.67164000  1.00000000  1
  O  O50  1  0.80253000  0.67164000  0.11379000  1
  O  O51  1  0.30253000  0.67164000  0.22759000  1
  O  O52  1  0.79514600  0.68036500  0.33601500  1
  O  O53  1  0.31094500  0.68155300  0.45780800  1
  O  O54  1  0.69747000  0.67164000  1.00000000  1
  O  O55  1  0.19747000  0.67164000  0.11379000  1
  O  O56  1  0.69747000  0.67164000  0.22759000  1
  O  O57  1  0.20007800  0.68136500  0.33464800  1
  O  O58  1  0.70139800  0.68247600  0.44190700  1
  O  O59  1  0.00000000  0.17164000  0.04494000  1
  O  O60  1  0.50000000  0.17164000  0.15874000  1
  O  O61  1  0.99978400  0.15531300  0.27066400  1
  O  O62  1  0.48618500  0.16766100  0.38499400  1
  O  O63  1  0.50000000  0.17164000  0.06885000  1
  O  O64  1  0.00000000  0.17164000  0.18264000  1
  O  O65  1  0.50214800  0.16804400  0.29531300  1
  O  O66  1  0.00713400  0.16242900  0.41000300  1
  O  O67  1  0.00000000  0.50000000  0.04332000  1
  O  O68  1  0.50000000  0.50000000  0.15711000  1
  O  O69  1  0.99950800  0.50002000  0.27169600  1
  O  O70  1  0.47880100  0.50674600  0.38549200  1
  O  O71  1  0.50000000  0.50000000  0.07048000  1
  O  O72  1  0.00000000  0.50000000  0.18427000  1
  O  O73  1  0.50296700  0.50727900  0.29350500  1
  O  O74  1  0.00220000  0.47564700  0.43659300  1
  O  O75  1  0.30966000  0.00000000  1.00000000  1
  O  O76  1  0.80966000  1.00000000  0.11379000  1
  O  O77  1  0.30966000  0.00000000  0.22759000  1
  O  O78  1  0.80566500  0.00075500  0.34255000  1
  O  O79  1  0.32138300  0.98832200  0.45040900  1
  O  O80  1  0.69034000  1.00000000  1.00000000  1
  O  O81  1  0.19034000  0.00000000  0.11379000  1
  O  O82  1  0.69034000  1.00000000  0.22759000  1
  O  O83  1  0.18736600  0.99975300  0.34144400  1
  O  O84  1  0.67849000  0.98344000  0.45014400  1
