# generated using pymatgen
data_MgTiMnVZnCrFeCoCuNiSb20ClO54
_symmetry_space_group_name_H-M   'P 1'
_cell_length_a   6.63826400
_cell_length_b   9.57162000
_cell_length_c   28.66157800
_cell_angle_alpha   89.94685300
_cell_angle_beta   89.97559200
_cell_angle_gamma   89.75313200
_symmetry_Int_Tables_number   1
_chemical_formula_structural   MgTiMnVZnCrFeCoCuNiSb20ClO54
_chemical_formula_sum
'Mg1 Ti1 Mn1 V1 Zn1 Cr1 Fe1 Co1 Cu1 Ni1 Sb20 Cl1 O54'
_cell_volume   1821.10844846
_cell_formula_units_Z   1
loop_
 _symmetry_equiv_pos_site_id
 _symmetry_equiv_pos_as_xyz
  1  'x, y, z'
loop_
 _atom_site_type_symbol
 _atom_site_label
 _atom_site_symmetry_multiplicity
 _atom_site_fract_x
 _atom_site_fract_y
 _atom_site_fract_z
 _atom_site_occupancy
  Mg  Mg0  1  0.00000000  0.66768000  0.00000000  1
  Ti  Ti1  1  0.00000000  0.50000000  0.88621000  1
  Mn  Mn2  1  0.50000000  0.66768000  0.88621000  1
  V  V3  1  0.50099600  0.00349900  0.65759600  1
  Zn  Zn4  1  0.50443000  0.82980400  0.54680000  1
  Cr  Cr5  1  0.50000000  1.00000000  0.88621000  1
  Fe  Fe6  1  0.49312900  0.16548400  0.54643400  1
  Co  Co7  1  0.00000000  0.16768000  0.88621000  1
  Cu  Cu8  1  0.50000000  0.50000000  0.77241000  1
  Ni  Ni9  1  0.49733200  0.50430500  0.54457700  1
  Sb  Sb10  1  0.00000000  0.00000000  0.00000000  1
  Sb  Sb11  1  0.00000000  0.00000000  0.77241000  1
  Sb  Sb12  1  0.00350600  0.00391500  0.52736100  1
  Sb  Sb13  1  0.50000000  0.50000000  0.00000000  1
  Sb  Sb14  1  0.00310600  0.50044500  0.64946000  1
  Sb  Sb15  1  0.00000000  0.66768000  0.77241000  1
  Sb  Sb16  1  0.50152400  0.66975500  0.65683200  1
  Sb  Sb17  1  0.00130800  0.65459200  0.52431100  1
  Sb  Sb18  1  0.50000000  0.16768000  0.00000000  1
  Sb  Sb19  1  0.50000000  0.16768000  0.77241000  1
  Sb  Sb20  1  0.99899900  0.15765900  0.65475200  1
  Sb  Sb21  1  0.50000000  0.83232000  0.00000000  1
  Sb  Sb22  1  0.00000000  0.83232000  0.88621000  1
  Sb  Sb23  1  0.50000000  0.83232000  0.77241000  1
  Sb  Sb24  1  0.00074100  0.83660500  0.64643500  1
  Sb  Sb25  1  0.00000000  0.33232000  0.00000000  1
  Sb  Sb26  1  0.50000000  0.33232000  0.88621000  1
  Sb  Sb27  1  0.00000000  0.33232000  0.77241000  1
  Sb  Sb28  1  0.50118800  0.33178000  0.65709400  1
  Sb  Sb29  1  0.98468200  0.31480500  0.53090600  1
  Cl  Cl30  1  0.47033500  0.50265300  0.47012600  1
  O  O31  1  0.00000000  0.82836000  0.95506000  1
  O  O32  1  0.50000000  0.82836000  0.84126000  1
  O  O33  1  0.00019600  0.84474300  0.72934800  1
  O  O34  1  0.50320100  0.84721600  0.61793300  1
  O  O35  1  0.50000000  0.82836000  0.93115000  1
  O  O36  1  0.00000000  0.82836000  0.81736000  1
  O  O37  1  0.50023000  0.83895700  0.70314200  1
  O  O38  1  0.00988500  0.83136400  0.56713000  1
  O  O39  1  0.69747000  0.32836000  0.00000000  1
  O  O40  1  0.19747000  0.32836000  0.88621000  1
  O  O41  1  0.69747000  0.32836000  0.77241000  1
  O  O42  1  0.19681200  0.31582100  0.66110000  1
  O  O43  1  0.66622100  0.32348400  0.54543000  1
  O  O44  1  0.30253000  0.32836000  0.00000000  1
  O  O45  1  0.80253000  0.32836000  0.88621000  1
  O  O46  1  0.30253000  0.32836000  0.77241000  1
  O  O47  1  0.80532600  0.31892200  0.66181600  1
  O  O48  1  0.29919500  0.29890800  0.54470600  1
  O  O49  1  0.69747000  0.67164000  0.00000000  1
  O  O50  1  0.19747000  0.67164000  0.88621000  1
  O  O51  1  0.69747000  0.67164000  0.77241000  1
  O  O52  1  0.20464900  0.67503100  0.66428900  1
  O  O53  1  0.70392900  0.66687700  0.54646100  1
  O  O54  1  0.30253000  0.67164000  0.00000000  1
  O  O55  1  0.80253000  0.67164000  0.88621000  1
  O  O56  1  0.30253000  0.67164000  0.77241000  1
  O  O57  1  0.79839900  0.67358200  0.66435900  1
  O  O58  1  0.31298300  0.65860500  0.54864100  1
  O  O59  1  0.00000000  0.17164000  0.95506000  1
  O  O60  1  0.50000000  0.17164000  0.84126000  1
  O  O61  1  0.00021600  0.15531300  0.72933600  1
  O  O62  1  0.50543400  0.15845000  0.61674400  1
  O  O63  1  0.50000000  0.17164000  0.93115000  1
  O  O64  1  0.00000000  0.17164000  0.81736000  1
  O  O65  1  0.50079600  0.16567700  0.70337300  1
  O  O66  1  0.98912000  0.15568100  0.58449800  1
  O  O67  1  0.00000000  0.50000000  0.95668000  1
  O  O68  1  0.50000000  0.50000000  0.84289000  1
  O  O69  1  0.00049200  0.50002000  0.72830400  1
  O  O70  1  0.50018700  0.49915900  0.61221700  1
  O  O71  1  0.50000000  0.50000000  0.92952000  1
  O  O72  1  0.00000000  0.50000000  0.81573000  1
  O  O73  1  0.49989300  0.49874500  0.70133500  1
  O  O74  1  0.00207000  0.48576300  0.56985200  1
  O  O75  1  0.69034000  0.00000000  0.00000000  1
  O  O76  1  0.19034000  1.00000000  0.88621000  1
  O  O77  1  0.69034000  0.00000000  0.77241000  1
  O  O78  1  0.21347300  0.01051800  0.66357500  1
  O  O79  1  0.68704600  0.02617900  0.53737400  1
  O  O80  1  0.30966000  1.00000000  0.00000000  1
  O  O81  1  0.80966000  0.00000000  0.88621000  1
  O  O82  1  0.30966000  1.00000000  0.77241000  1
  O  O83  1  0.78745800  0.01008600  0.66457400  1
  O  O84  1  0.31773600  0.01426400  0.53970900  1
