# generated using pymatgen
data_MgTiMnVZnCrFeCoCuNiSb20ClO54
_symmetry_space_group_name_H-M   'P 1'
_cell_length_a   6.60938600
_cell_length_b   9.74678700
_cell_length_c   29.08974900
_cell_angle_alpha   90.06667100
_cell_angle_beta   89.96297000
_cell_angle_gamma   89.97753700
_symmetry_Int_Tables_number   1
_chemical_formula_structural   MgTiMnVZnCrFeCoCuNiSb20ClO54
_chemical_formula_sum
'Mg1 Ti1 Mn1 V1 Zn1 Cr1 Fe1 Co1 Cu1 Ni1 Sb20 Cl1 O54'
_cell_volume   1873.96789957
_cell_formula_units_Z   1
loop_
 _symmetry_equiv_pos_site_id
 _symmetry_equiv_pos_as_xyz
  1  'x, y, z'
loop_
 _atom_site_type_symbol
 _atom_site_label
 _atom_site_symmetry_multiplicity
 _atom_site_fract_x
 _atom_site_fract_y
 _atom_site_fract_z
 _atom_site_occupancy
  Mg  Mg0  1  0.00000000  0.66768000  1.00000000  1
  Ti  Ti1  1  0.00130100  0.33142500  0.54898900  1
  Mn  Mn2  1  0.99944200  0.82634500  0.66492200  1
  V  V3  1  0.50040500  0.98037900  0.65236700  1
  Zn  Zn4  1  0.50000000  0.83232000  0.77241000  1
  Cr  Cr5  1  0.00000000  0.66768000  0.77241000  1
  Fe  Fe6  1  1.00000000  0.83232000  0.88621000  1
  Co  Co7  1  0.49992200  0.66719600  0.65591600  1
  Cu  Cu8  1  0.00000000  0.33232000  1.00000000  1
  Ni  Ni9  1  0.50070900  0.49994600  0.54831400  1
  Sb  Sb10  1  0.00000000  0.00000000  0.00000000  1
  Sb  Sb11  1  0.50000000  0.00000000  0.88621000  1
  Sb  Sb12  1  0.00000000  0.00000000  0.77241000  1
  Sb  Sb13  1  0.00206200  0.98581800  0.57393600  1
  Sb  Sb14  1  0.50000000  0.50000000  1.00000000  1
  Sb  Sb15  1  0.00000000  0.50000000  0.88621000  1
  Sb  Sb16  1  0.50000000  0.50000000  0.77241000  1
  Sb  Sb17  1  0.99976700  0.52934000  0.65978200  1
  Sb  Sb18  1  0.50000000  0.33232000  0.88621000  1
  Sb  Sb19  1  0.00000000  0.33232000  0.77241000  1
  Sb  Sb20  1  0.49921900  0.32567400  0.65697700  1
  Sb  Sb21  1  0.50000000  0.83232000  1.00000000  1
  Sb  Sb22  1  0.50032200  0.79973300  0.53638200  1
  Sb  Sb23  1  0.50000000  0.16768000  1.00000000  1
  Sb  Sb24  1  0.00000000  0.16768000  0.88621000  1
  Sb  Sb25  1  0.50000000  0.16768000  0.77241000  1
  Sb  Sb26  1  0.99950500  0.16270500  0.66074300  1
  Sb  Sb27  1  0.50255500  0.17283100  0.53682700  1
  Sb  Sb28  1  0.50000000  0.66768000  0.88621000  1
  Sb  Sb29  1  0.99837000  0.66913700  0.53905100  1
  Cl  Cl30  1  0.50482800  0.56244600  0.47311500  1
  O  O31  1  0.00000000  0.17164000  0.95506000  1
  O  O32  1  0.50000000  0.17164000  0.84126000  1
  O  O33  1  0.99980400  0.15525700  0.72934800  1
  O  O34  1  0.49951200  0.16950600  0.60910500  1
  O  O35  1  0.50000000  0.17164000  0.93115000  1
  O  O36  1  0.00000000  0.17164000  0.81736000  1
  O  O37  1  0.49999000  0.15846100  0.69970600  1
  O  O38  1  0.00266500  0.18630600  0.59197800  1
  O  O39  1  0.30253000  0.67164000  1.00000000  1
  O  O40  1  0.80253000  0.67164000  0.88621000  1
  O  O41  1  0.30253000  0.67164000  0.77241000  1
  O  O42  1  0.79856400  0.69394300  0.66693500  1
  O  O43  1  0.30178400  0.65726500  0.55925000  1
  O  O44  1  0.69747000  0.67164000  1.00000000  1
  O  O45  1  0.19747000  0.67164000  0.88621000  1
  O  O46  1  0.69747000  0.67164000  0.77241000  1
  O  O47  1  0.20097000  0.69418800  0.66652700  1
  O  O48  1  0.69671400  0.65650600  0.56067000  1
  O  O49  1  0.30253000  0.32836000  1.00000000  1
  O  O50  1  0.80253000  0.32836000  0.88621000  1
  O  O51  1  0.30253000  0.32836000  0.77241000  1
  O  O52  1  0.80371700  0.31578100  0.66287400  1
  O  O53  1  0.27069600  0.32265800  0.53123900  1
  O  O54  1  0.69747000  0.32836000  1.00000000  1
  O  O55  1  0.19747000  0.32836000  0.88621000  1
  O  O56  1  0.69747000  0.32836000  0.77241000  1
  O  O57  1  0.19491500  0.31573400  0.66350700  1
  O  O58  1  0.72947500  0.32359600  0.53197800  1
  O  O59  1  1.00000000  0.82836000  0.95506000  1
  O  O60  1  0.50000000  0.82836000  0.84126000  1
  O  O61  1  0.99978400  0.84468700  0.72933600  1
  O  O62  1  0.50004600  0.86417300  0.60654600  1
  O  O63  1  0.50000000  0.82836000  0.93115000  1
  O  O64  1  1.00000000  0.82836000  0.81736000  1
  O  O65  1  0.49995000  0.87089300  0.69583800  1
  O  O66  1  0.99782900  0.79855800  0.59713400  1
  O  O67  1  0.00000000  0.50000000  0.95668000  1
  O  O68  1  0.50000000  0.50000000  0.84289000  1
  O  O69  1  0.99950800  0.49998000  0.72830400  1
  O  O70  1  0.49781600  0.48425800  0.61631500  1
  O  O71  1  0.50000000  0.50000000  0.92952000  1
  O  O72  1  1.00000000  0.50000000  0.81573000  1
  O  O73  1  0.50022500  0.48388700  0.70315900  1
  O  O74  1  0.00103600  0.49407400  0.57567500  1
  O  O75  1  0.30966000  1.00000000  1.00000000  1
  O  O76  1  0.80966000  0.00000000  0.88621000  1
  O  O77  1  0.30966000  1.00000000  0.77241000  1
  O  O78  1  0.81352400  0.99672000  0.64804000  1
  O  O79  1  0.24333600  0.99169000  0.53857400  1
  O  O80  1  0.69034000  0.00000000  0.00000000  1
  O  O81  1  0.19034000  1.00000000  0.88621000  1
  O  O82  1  0.69034000  0.00000000  0.77241000  1
  O  O83  1  0.18564600  0.99655300  0.64793900  1
  O  O84  1  0.76231600  0.99832600  0.53820000  1
