# generated using pymatgen
data_MgTiMnVZnCrFeCoCuNiSb20ClO54
_symmetry_space_group_name_H-M   'P 1'
_cell_length_a   6.69770500
_cell_length_b   9.63905000
_cell_length_c   29.42207300
_cell_angle_alpha   90.00951400
_cell_angle_beta   89.54026000
_cell_angle_gamma   89.68631800
_symmetry_Int_Tables_number   1
_chemical_formula_structural   MgTiMnVZnCrFeCoCuNiSb20ClO54
_chemical_formula_sum
'Mg1 Ti1 Mn1 V1 Zn1 Cr1 Fe1 Co1 Cu1 Ni1 Sb20 Cl1 O54'
_cell_volume   1899.38506015
_cell_formula_units_Z   1
loop_
 _symmetry_equiv_pos_site_id
 _symmetry_equiv_pos_as_xyz
  1  'x, y, z'
loop_
 _atom_site_type_symbol
 _atom_site_label
 _atom_site_symmetry_multiplicity
 _atom_site_fract_x
 _atom_site_fract_y
 _atom_site_fract_z
 _atom_site_occupancy
  Mg  Mg0  1  0.50336000  0.66163100  0.65919000  1
  Ti  Ti1  1  0.50000000  0.16768000  1.00000000  1
  Mn  Mn2  1  0.01428600  0.01083900  0.56516300  1
  V  V3  1  0.94969700  0.33671800  0.56124200  1
  Zn  Zn4  1  0.00863100  0.17246900  0.66064300  1
  Cr  Cr5  1  0.50000000  0.66768000  0.88621000  1
  Fe  Fe6  1  0.50342000  0.33753400  0.66038200  1
  Co  Co7  1  1.00000000  0.33232000  1.00000000  1
  Cu  Cu8  1  0.50000000  0.16768000  0.77241000  1
  Ni  Ni9  1  0.52180900  0.50022900  0.55980800  1
  Sb  Sb10  1  0.00000000  0.00000000  0.00000000  1
  Sb  Sb11  1  0.50000000  1.00000000  0.88621000  1
  Sb  Sb12  1  1.00000000  0.00000000  0.77241000  1
  Sb  Sb13  1  0.50296000  0.00263800  0.66057900  1
  Sb  Sb14  1  0.50000000  0.50000000  1.00000000  1
  Sb  Sb15  1  1.00000000  0.50000000  0.88621000  1
  Sb  Sb16  1  0.50000000  0.50000000  0.77241000  1
  Sb  Sb17  1  0.00699200  0.49615800  0.65944600  1
  Sb  Sb18  1  0.00000000  0.66768000  0.00000000  1
  Sb  Sb19  1  0.00000000  0.66768000  0.77241000  1
  Sb  Sb20  1  0.02601800  0.66112500  0.54384800  1
  Sb  Sb21  1  1.00000000  0.16768000  0.88621000  1
  Sb  Sb22  1  0.49718000  0.15108200  0.54700200  1
  Sb  Sb23  1  0.50000000  0.83232000  1.00000000  1
  Sb  Sb24  1  1.00000000  0.83232000  0.88621000  1
  Sb  Sb25  1  0.50000000  0.83232000  0.77241000  1
  Sb  Sb26  1  0.00053900  0.82942100  0.65765300  1
  Sb  Sb27  1  0.52164100  0.80624300  0.54914000  1
  Sb  Sb28  1  0.50000000  0.33232000  0.88621000  1
  Sb  Sb29  1  1.00000000  0.33232000  0.77241000  1
  Cl  Cl30  1  0.50598700  0.52636000  0.48564100  1
  O  O31  1  0.00000000  0.82836000  0.95506000  1
  O  O32  1  0.50000000  0.82836000  0.84126000  1
  O  O33  1  0.00019600  0.84474300  0.72934800  1
  O  O34  1  0.51590100  0.84164300  0.61776700  1
  O  O35  1  0.50000000  0.82836000  0.93115000  1
  O  O36  1  1.00000000  0.82836000  0.81736000  1
  O  O37  1  0.50262600  0.83654000  0.70474300  1
  O  O38  1  0.99686900  0.82424500  0.58890700  1
  O  O39  1  0.69747000  0.32836000  1.00000000  1
  O  O40  1  0.19747000  0.32836000  0.88621000  1
  O  O41  1  0.69747000  0.32836000  0.77241000  1
  O  O42  1  0.20251300  0.34124600  0.66506500  1
  O  O43  1  0.69189300  0.33670100  0.55632100  1
  O  O44  1  0.30253000  0.32836000  1.00000000  1
  O  O45  1  0.80253000  0.32836000  0.88621000  1
  O  O46  1  0.30253000  0.32836000  0.77241000  1
  O  O47  1  0.80828100  0.34311400  0.65644800  1
  O  O48  1  0.04979000  0.35625000  0.51162900  1
  O  O49  1  0.69747000  0.67164000  1.00000000  1
  O  O50  1  0.19747000  0.67164000  0.88621000  1
  O  O51  1  0.69747000  0.67164000  0.77241000  1
  O  O52  1  0.19033600  0.66628300  0.66278700  1
  O  O53  1  0.72254100  0.64748700  0.56593600  1
  O  O54  1  0.30253000  0.67164000  1.00000000  1
  O  O55  1  0.80253000  0.67164000  0.88621000  1
  O  O56  1  0.30253000  0.67164000  0.77241000  1
  O  O57  1  0.81551600  0.66415300  0.66290500  1
  O  O58  1  0.32320800  0.65409400  0.56589000  1
  O  O59  1  1.00000000  0.17164000  0.95506000  1
  O  O60  1  0.50000000  0.17164000  0.84126000  1
  O  O61  1  0.00021600  0.15531300  0.72933600  1
  O  O62  1  0.49204400  0.16185300  0.61537600  1
  O  O63  1  0.50000000  0.17164000  0.93115000  1
  O  O64  1  1.00000000  0.17164000  0.81736000  1
  O  O65  1  0.50498100  0.17102100  0.70061400  1
  O  O66  1  0.04800600  0.18875500  0.58780200  1
  O  O67  1  0.00000000  0.50000000  0.95668000  1
  O  O68  1  0.50000000  0.50000000  0.84289000  1
  O  O69  1  0.00049200  0.50002000  0.72830400  1
  O  O70  1  0.48505000  0.47862300  0.62265000  1
  O  O71  1  0.50000000  0.50000000  0.92952000  1
  O  O72  1  0.00000000  0.50000000  0.81573000  1
  O  O73  1  0.50692000  0.50084400  0.70669500  1
  O  O74  1  0.02656000  0.49759800  0.58997100  1
  O  O75  1  0.69034000  0.00000000  1.00000000  1
  O  O76  1  0.19034000  1.00000000  0.88621000  1
  O  O77  1  0.69034000  0.00000000  0.77241000  1
  O  O78  1  0.19535600  0.98828200  0.65763200  1
  O  O79  1  0.74119000  0.02606700  0.54910300  1
  O  O80  1  0.30966000  1.00000000  1.00000000  1
  O  O81  1  0.80966000  0.00000000  0.88621000  1
  O  O82  1  0.30966000  1.00000000  0.77241000  1
  O  O83  1  0.81136900  0.99223100  0.65785800  1
  O  O84  1  0.27765700  0.98377300  0.54979500  1
