# generated using pymatgen
data_MgTiMnVZnCrFeCoCuNiSb20ClO54
_symmetry_space_group_name_H-M   'P 1'
_cell_length_a   6.68727200
_cell_length_b   9.56861500
_cell_length_c   29.12740600
_cell_angle_alpha   89.97168600
_cell_angle_beta   89.79775300
_cell_angle_gamma   89.50946800
_symmetry_Int_Tables_number   1
_chemical_formula_structural   MgTiMnVZnCrFeCoCuNiSb20ClO54
_chemical_formula_sum
'Mg1 Ti1 Mn1 V1 Zn1 Cr1 Fe1 Co1 Cu1 Ni1 Sb20 Cl1 O54'
_cell_volume   1863.72233291
_cell_formula_units_Z   1
loop_
 _symmetry_equiv_pos_site_id
 _symmetry_equiv_pos_as_xyz
  1  'x, y, z'
loop_
 _atom_site_type_symbol
 _atom_site_label
 _atom_site_symmetry_multiplicity
 _atom_site_fract_x
 _atom_site_fract_y
 _atom_site_fract_z
 _atom_site_occupancy
  Mg  Mg0  1  0.50000000  0.83232000  0.00000000  1
  Ti  Ti1  1  0.06746900  0.96585000  0.54201800  1
  Mn  Mn2  1  0.50000000  0.16768000  0.00000000  1
  V  V3  1  0.96568500  0.68876600  0.54040100  1
  Zn  Zn4  1  0.00000000  0.00000000  0.00000000  1
  Cr  Cr5  1  0.50000000  0.83232000  0.77241000  1
  Fe  Fe6  1  0.46307600  0.77753600  0.54425000  1
  Co  Co7  1  1.00000000  0.50000000  0.88621000  1
  Cu  Cu8  1  0.50000000  0.66768000  0.88621000  1
  Ni  Ni9  1  0.47750300  0.50500500  0.54125500  1
  Sb  Sb10  1  0.50000000  0.00000000  0.88621000  1
  Sb  Sb11  1  1.00000000  0.00000000  0.77241000  1
  Sb  Sb12  1  0.47855000  0.99520200  0.65567800  1
  Sb  Sb13  1  0.50000000  0.50000000  0.00000000  1
  Sb  Sb14  1  0.50000000  0.50000000  0.77241000  1
  Sb  Sb15  1  0.02046800  0.49288600  0.64743100  1
  Sb  Sb16  1  0.00000000  0.33232000  0.00000000  1
  Sb  Sb17  1  0.50000000  0.33232000  0.88621000  1
  Sb  Sb18  1  0.00000000  0.33232000  0.77241000  1
  Sb  Sb19  1  0.49503000  0.33360800  0.65126700  1
  Sb  Sb20  1  0.99388300  0.35862700  0.52375500  1
  Sb  Sb21  1  1.00000000  0.83232000  0.88621000  1
  Sb  Sb22  1  0.97780200  0.83386000  0.65740800  1
  Sb  Sb23  1  0.00000000  0.16768000  0.88621000  1
  Sb  Sb24  1  0.50000000  0.16768000  0.77241000  1
  Sb  Sb25  1  0.96408800  0.16648100  0.63714400  1
  Sb  Sb26  1  0.50970200  0.20765300  0.53238100  1
  Sb  Sb27  1  1.00000000  0.66768000  0.00000000  1
  Sb  Sb28  1  1.00000000  0.66768000  0.77241000  1
  Sb  Sb29  1  0.49415500  0.66821500  0.65835600  1
  Cl  Cl30  1  0.47528600  0.41744100  0.46626400  1
  O  O31  1  0.00000000  0.17164000  0.95506000  1
  O  O32  1  0.50000000  0.17164000  0.84126000  1
  O  O33  1  0.99980400  0.15525700  0.72934800  1
  O  O34  1  0.53587500  0.17700400  0.60678200  1
  O  O35  1  0.50000000  0.17164000  0.93115000  1
  O  O36  1  0.00000000  0.17164000  0.81736000  1
  O  O37  1  0.51379100  0.18383300  0.70296200  1
  O  O38  1  0.97234100  0.14851600  0.54215700  1
  O  O39  1  0.30253000  0.67164000  0.00000000  1
  O  O40  1  0.80253000  0.67164000  0.88621000  1
  O  O41  1  0.30253000  0.67164000  0.77241000  1
  O  O42  1  0.79991200  0.66564000  0.66127000  1
  O  O43  1  0.23833500  0.65691400  0.53267000  1
  O  O44  1  0.69747000  0.67164000  0.00000000  1
  O  O45  1  0.19747000  0.67164000  0.88621000  1
  O  O46  1  0.69747000  0.67164000  0.77241000  1
  O  O47  1  0.19496200  0.69402000  0.66121700  1
  O  O48  1  0.69458700  0.66293900  0.53282900  1
  O  O49  1  0.30253000  0.32836000  0.00000000  1
  O  O50  1  0.80253000  0.32836000  0.88621000  1
  O  O51  1  0.30253000  0.32836000  0.77241000  1
  O  O52  1  0.78916800  0.34632600  0.66285300  1
  O  O53  1  0.28678300  0.33579100  0.55351300  1
  O  O54  1  0.69747000  0.32836000  0.00000000  1
  O  O55  1  0.19747000  0.32836000  0.88621000  1
  O  O56  1  0.69747000  0.32836000  0.77241000  1
  O  O57  1  0.20390300  0.29549000  0.65844700  1
  O  O58  1  0.69599200  0.35797800  0.55052700  1
  O  O59  1  1.00000000  0.82836000  0.95506000  1
  O  O60  1  0.50000000  0.82836000  0.84126000  1
  O  O61  1  0.99978400  0.84468700  0.72933600  1
  O  O62  1  0.51501500  0.81074100  0.61025100  1
  O  O63  1  0.50000000  0.82836000  0.93115000  1
  O  O64  1  1.00000000  0.82836000  0.81736000  1
  O  O65  1  0.50438900  0.82289600  0.70428300  1
  O  O66  1  0.97302400  0.82739000  0.58761200  1
  O  O67  1  1.00000000  0.50000000  0.95668000  1
  O  O68  1  0.50000000  0.50000000  0.84289000  1
  O  O69  1  0.99950800  0.49998000  0.72830400  1
  O  O70  1  0.47264000  0.51041800  0.61217300  1
  O  O71  1  0.50000000  0.50000000  0.92952000  1
  O  O72  1  1.00000000  0.50000000  0.81573000  1
  O  O73  1  0.47330500  0.49632400  0.69884800  1
  O  O74  1  0.97897900  0.50836600  0.57472200  1
  O  O75  1  0.30966000  1.00000000  0.00000000  1
  O  O76  1  0.80966000  0.00000000  0.88621000  1
  O  O77  1  0.30966000  1.00000000  0.77241000  1
  O  O78  1  0.79133800  0.99241000  0.66309200  1
  O  O79  1  0.33393000  0.95545000  0.53927300  1
  O  O80  1  0.69034000  0.00000000  1.00000000  1
  O  O81  1  0.19034000  1.00000000  0.88621000  1
  O  O82  1  0.69034000  0.00000000  0.77241000  1
  O  O83  1  0.15712800  0.99221500  0.64873200  1
  O  O84  1  0.97187600  0.84877500  0.50076900  1
