# generated using pymatgen
data_MgTiMnVZnCrFeCoCuNiSb20ClO54
_symmetry_space_group_name_H-M   'P 1'
_cell_length_a   6.65511700
_cell_length_b   9.51610000
_cell_length_c   28.70455000
_cell_angle_alpha   89.72521300
_cell_angle_beta   90.82957800
_cell_angle_gamma   89.67639500
_symmetry_Int_Tables_number   1
_chemical_formula_structural   MgTiMnVZnCrFeCoCuNiSb20ClO54
_chemical_formula_sum
'Mg1 Ti1 Mn1 V1 Zn1 Cr1 Fe1 Co1 Cu1 Ni1 Sb20 Cl1 O54'
_cell_volume   1817.63977028
_cell_formula_units_Z   1
loop_
 _symmetry_equiv_pos_site_id
 _symmetry_equiv_pos_as_xyz
  1  'x, y, z'
loop_
 _atom_site_type_symbol
 _atom_site_label
 _atom_site_symmetry_multiplicity
 _atom_site_fract_x
 _atom_site_fract_y
 _atom_site_fract_z
 _atom_site_occupancy
  Mg  Mg0  1  0.00000000  1.00000000  0.77241000  1
  Ti  Ti1  1  0.00000000  0.33232000  0.77241000  1
  Mn  Mn2  1  1.00000000  0.33232000  1.00000000  1
  V  V3  1  0.98118100  0.01751800  0.56570900  1
  Zn  Zn4  1  0.50000000  0.33232000  0.88621000  1
  Cr  Cr5  1  0.00000000  0.00000000  0.00000000  1
  Fe  Fe6  1  0.50000000  0.16768000  0.00000000  1
  Co  Co7  1  1.00000000  0.16768000  0.88621000  1
  Cu  Cu8  1  0.50000000  0.83232000  0.00000000  1
  Ni  Ni9  1  0.49760600  0.50903000  0.53831200  1
  Sb  Sb10  1  0.50000000  0.00000000  0.88621000  1
  Sb  Sb11  1  0.54613400  0.00759300  0.65892700  1
  Sb  Sb12  1  0.50000000  0.50000000  0.00000000  1
  Sb  Sb13  1  1.00000000  0.50000000  0.88621000  1
  Sb  Sb14  1  0.50000000  0.50000000  0.77241000  1
  Sb  Sb15  1  0.98199000  0.50445100  0.62918500  1
  Sb  Sb16  1  0.00000000  0.66768000  1.00000000  1
  Sb  Sb17  1  0.50000000  0.66768000  0.88621000  1
  Sb  Sb18  1  0.00000000  0.66768000  0.77241000  1
  Sb  Sb19  1  0.51838600  0.66530000  0.65106900  1
  Sb  Sb20  1  0.00048900  0.70518100  0.51738200  1
  Sb  Sb21  1  0.50000000  0.16768000  0.77241000  1
  Sb  Sb22  1  0.02716600  0.17927500  0.66099500  1
  Sb  Sb23  1  0.49866200  0.20289000  0.53156100  1
  Sb  Sb24  1  1.00000000  0.83232000  0.88621000  1
  Sb  Sb25  1  0.50000000  0.83232000  0.77241000  1
  Sb  Sb26  1  0.06295900  0.83071500  0.65846900  1
  Sb  Sb27  1  0.49484700  0.83446000  0.53456600  1
  Sb  Sb28  1  0.51023300  0.33821600  0.65032200  1
  Sb  Sb29  1  0.02250500  0.32581500  0.52485500  1
  Cl  Cl30  1  0.39339500  0.44632200  0.46350600  1
  O  O31  1  1.00000000  0.82836000  0.95506000  1
  O  O32  1  0.50000000  0.82836000  0.84126000  1
  O  O33  1  0.00019600  0.84474300  0.72934800  1
  O  O34  1  0.49997500  0.83564500  0.60788600  1
  O  O35  1  0.50000000  0.82836000  0.93115000  1
  O  O36  1  0.00000000  0.82836000  0.81736000  1
  O  O37  1  0.45729600  0.80365900  0.70199900  1
  O  O38  1  0.98339800  0.82588100  0.57630400  1
  O  O39  1  0.69747000  0.32836000  1.00000000  1
  O  O40  1  0.19747000  0.32836000  0.88621000  1
  O  O41  1  0.69747000  0.32836000  0.77241000  1
  O  O42  1  0.20959900  0.34449600  0.65771700  1
  O  O43  1  0.70811200  0.34779500  0.53808700  1
  O  O44  1  0.30253000  0.32836000  1.00000000  1
  O  O45  1  0.80253000  0.32836000  0.88621000  1
  O  O46  1  0.30253000  0.32836000  0.77241000  1
  O  O47  1  0.80671200  0.32090100  0.66391800  1
  O  O48  1  0.31211100  0.34982000  0.55787700  1
  O  O49  1  0.69747000  0.67164000  1.00000000  1
  O  O50  1  0.19747000  0.67164000  0.88621000  1
  O  O51  1  0.69747000  0.67164000  0.77241000  1
  O  O52  1  0.22880200  0.62748900  0.64307700  1
  O  O53  1  0.68858500  0.67708100  0.53172300  1
  O  O54  1  0.30253000  0.67164000  0.00000000  1
  O  O55  1  0.80253000  0.67164000  0.88621000  1
  O  O56  1  0.30253000  0.67164000  0.77241000  1
  O  O57  1  0.81313000  0.68583700  0.65733500  1
  O  O58  1  0.30412000  0.67952000  0.53840100  1
  O  O59  1  0.00000000  0.17164000  0.95506000  1
  O  O60  1  0.50000000  0.17164000  0.84126000  1
  O  O61  1  0.00021600  0.15531300  0.72933600  1
  O  O62  1  0.53438900  0.17210500  0.60754100  1
  O  O63  1  0.50000000  0.17164000  0.93115000  1
  O  O64  1  0.00000000  0.17164000  0.81736000  1
  O  O65  1  0.49101700  0.19347600  0.70274200  1
  O  O66  1  0.00077000  0.20711300  0.58800100  1
  O  O67  1  1.00000000  0.50000000  0.95668000  1
  O  O68  1  0.50000000  0.50000000  0.84289000  1
  O  O69  1  0.00049200  0.50002000  0.72830400  1
  O  O70  1  0.57243200  0.50337700  0.60792600  1
  O  O71  1  0.50000000  0.50000000  0.92952000  1
  O  O72  1  0.00000000  0.50000000  0.81573000  1
  O  O73  1  0.52000600  0.50001700  0.69717000  1
  O  O74  1  0.00081700  0.52128700  0.55115800  1
  O  O75  1  0.69034000  0.00000000  1.00000000  1
  O  O76  1  0.19034000  0.00000000  0.88621000  1
  O  O77  1  0.69034000  1.00000000  0.77241000  1
  O  O78  1  0.24087900  0.03630400  0.65140800  1
  O  O79  1  0.78533900  0.03586700  0.52864200  1
  O  O80  1  0.30966000  1.00000000  0.00000000  1
  O  O81  1  0.80966000  0.00000000  0.88621000  1
  O  O82  1  0.30966000  0.00000000  0.77241000  1
  O  O83  1  0.87895600  0.01184100  0.63439200  1
  O  O84  1  0.19031600  0.02582200  0.53380800  1
