# generated using pymatgen
data_MgTiMnVZnCrFeCoCuNiSb20ClO54
_symmetry_space_group_name_H-M   'P 1'
_cell_length_a   6.66027600
_cell_length_b   9.45951100
_cell_length_c   28.28328000
_cell_angle_alpha   89.84329200
_cell_angle_beta   89.95478000
_cell_angle_gamma   89.99314600
_symmetry_Int_Tables_number   1
_chemical_formula_structural   MgTiMnVZnCrFeCoCuNiSb20ClO54
_chemical_formula_sum
'Mg1 Ti1 Mn1 V1 Zn1 Cr1 Fe1 Co1 Cu1 Ni1 Sb20 Cl1 O54'
_cell_volume   1781.92295898
_cell_formula_units_Z   1
loop_
 _symmetry_equiv_pos_site_id
 _symmetry_equiv_pos_as_xyz
  1  'x, y, z'
loop_
 _atom_site_type_symbol
 _atom_site_label
 _atom_site_symmetry_multiplicity
 _atom_site_fract_x
 _atom_site_fract_y
 _atom_site_fract_z
 _atom_site_occupancy
  Mg  Mg0  1  1.00000000  0.66768000  0.77241000  1
  Ti  Ti1  1  0.50000000  0.16768000  0.00000000  1
  Mn  Mn2  1  0.50000000  0.00000000  0.88621000  1
  V  V3  1  1.00000000  0.83232000  0.88621000  1
  Zn  Zn4  1  0.00053500  0.49702300  0.66175200  1
  Cr  Cr5  1  0.50000000  0.66768000  0.88621000  1
  Fe  Fe6  1  1.00000000  0.16768000  0.88621000  1
  Co  Co7  1  0.00000000  0.66768000  0.00000000  1
  Cu  Cu8  1  1.00000000  0.33232000  0.77241000  1
  Ni  Ni9  1  0.50295700  0.50084300  0.54275600  1
  Sb  Sb10  1  0.00000000  0.00000000  0.00000000  1
  Sb  Sb11  1  1.00000000  0.00000000  0.77241000  1
  Sb  Sb12  1  0.50029700  0.99870100  0.64727400  1
  Sb  Sb13  1  0.00162200  0.99987500  0.53616400  1
  Sb  Sb14  1  0.50000000  0.50000000  0.00000000  1
  Sb  Sb15  1  1.00000000  0.50000000  0.88621000  1
  Sb  Sb16  1  0.50000000  0.50000000  0.77241000  1
  Sb  Sb17  1  0.00000000  0.33232000  0.00000000  1
  Sb  Sb18  1  0.50000000  0.33232000  0.88621000  1
  Sb  Sb19  1  0.50021600  0.33070200  0.65179000  1
  Sb  Sb20  1  0.00187900  0.33976300  0.53729700  1
  Sb  Sb21  1  0.50000000  0.83232000  0.00000000  1
  Sb  Sb22  1  0.50000000  0.83232000  0.77241000  1
  Sb  Sb23  1  0.00052300  0.82584500  0.65768700  1
  Sb  Sb24  1  0.50287600  0.82217900  0.52244300  1
  Sb  Sb25  1  0.50000000  0.16768000  0.77241000  1
  Sb  Sb26  1  0.00033400  0.17152100  0.65748100  1
  Sb  Sb27  1  0.50256900  0.17964200  0.52362400  1
  Sb  Sb28  1  0.50032700  0.66726300  0.65285700  1
  Sb  Sb29  1  0.00223800  0.66227700  0.53731300  1
  Cl  Cl30  1  0.50793800  0.49851000  0.46381600  1
  O  O31  1  1.00000000  0.17164000  0.95506000  1
  O  O32  1  0.50000000  0.17164000  0.84126000  1
  O  O33  1  0.99980400  0.15525700  0.72934800  1
  O  O34  1  0.49946900  0.16782500  0.60719100  1
  O  O35  1  0.50000000  0.17164000  0.93115000  1
  O  O36  1  1.00000000  0.17164000  0.81736000  1
  O  O37  1  0.49999100  0.15759000  0.69898100  1
  O  O38  1  0.00364900  0.16581900  0.58501300  1
  O  O39  1  0.30253000  0.67164000  0.00000000  1
  O  O40  1  0.80253000  0.67164000  0.88621000  1
  O  O41  1  0.30253000  0.67164000  0.77241000  1
  O  O42  1  0.80011600  0.67232800  0.65739100  1
  O  O43  1  0.31116400  0.66767600  0.54750400  1
  O  O44  1  0.69747000  0.67164000  0.00000000  1
  O  O45  1  0.19747000  0.67164000  0.88621000  1
  O  O46  1  0.69747000  0.67164000  0.77241000  1
  O  O47  1  0.20068100  0.67227600  0.65753900  1
  O  O48  1  0.69329100  0.66748900  0.54835000  1
  O  O49  1  0.30253000  0.32836000  0.00000000  1
  O  O50  1  0.80253000  0.32836000  0.88621000  1
  O  O51  1  0.30253000  0.32836000  0.77241000  1
  O  O52  1  0.79875700  0.32433500  0.65652900  1
  O  O53  1  0.31100700  0.33392500  0.54849200  1
  O  O54  1  0.69747000  0.32836000  0.00000000  1
  O  O55  1  0.19747000  0.32836000  0.88621000  1
  O  O56  1  0.69747000  0.32836000  0.77241000  1
  O  O57  1  0.20147900  0.32445300  0.65659100  1
  O  O58  1  0.69417000  0.33336800  0.54931600  1
  O  O59  1  1.00000000  0.82836000  0.95506000  1
  O  O60  1  0.50000000  0.82836000  0.84126000  1
  O  O61  1  0.99978400  0.84468700  0.72933600  1
  O  O62  1  0.49897900  0.82925500  0.60783600  1
  O  O63  1  0.50000000  0.82836000  0.93115000  1
  O  O64  1  1.00000000  0.82836000  0.81736000  1
  O  O65  1  0.50020100  0.84039700  0.69970200  1
  O  O66  1  0.00363700  0.83310900  0.58544600  1
  O  O67  1  1.00000000  0.50000000  0.95668000  1
  O  O68  1  0.50000000  0.50000000  0.84289000  1
  O  O69  1  0.99950800  0.49998000  0.72830400  1
  O  O70  1  0.49986400  0.50061400  0.61105600  1
  O  O71  1  0.50000000  0.50000000  0.92952000  1
  O  O72  1  1.00000000  0.50000000  0.81573000  1
  O  O73  1  0.50010900  0.49843400  0.70010500  1
  O  O74  1  0.00354300  0.50076400  0.58435600  1
  O  O75  1  0.30966000  0.00000000  0.00000000  1
  O  O76  1  0.80966000  0.00000000  0.88621000  1
  O  O77  1  0.30966000  0.00000000  0.77241000  1
  O  O78  1  0.80685100  0.99775800  0.65557400  1
  O  O79  1  0.31010200  0.99891400  0.54843100  1
  O  O80  1  0.69034000  0.00000000  0.00000000  1
  O  O81  1  0.19034000  0.00000000  0.88621000  1
  O  O82  1  0.69034000  0.00000000  0.77241000  1
  O  O83  1  0.19384700  0.99781600  0.65577100  1
  O  O84  1  0.69445900  0.99821400  0.54944800  1
