# generated using pymatgen
data_MgTiMnVZnCrFeCoCuNiSb20ClO54
_symmetry_space_group_name_H-M   'P 1'
_cell_length_a   6.69251600
_cell_length_b   9.63669000
_cell_length_c   29.67571700
_cell_angle_alpha   89.87190800
_cell_angle_beta   89.99445100
_cell_angle_gamma   89.99384500
_symmetry_Int_Tables_number   1
_chemical_formula_structural   MgTiMnVZnCrFeCoCuNiSb20ClO54
_chemical_formula_sum
'Mg1 Ti1 Mn1 V1 Zn1 Cr1 Fe1 Co1 Cu1 Ni1 Sb20 Cl1 O54'
_cell_volume   1913.89204636
_cell_formula_units_Z   1
loop_
 _symmetry_equiv_pos_site_id
 _symmetry_equiv_pos_as_xyz
  1  'x, y, z'
loop_
 _atom_site_type_symbol
 _atom_site_label
 _atom_site_symmetry_multiplicity
 _atom_site_fract_x
 _atom_site_fract_y
 _atom_site_fract_z
 _atom_site_occupancy
  Mg  Mg0  1  0.50000000  0.83232000  0.00000000  1
  Ti  Ti1  1  0.49112600  0.83598500  0.44685200  1
  Mn  Mn2  1  0.00000000  0.00000000  0.00000000  1
  V  V3  1  0.00103400  0.68192700  0.44311200  1
  Zn  Zn4  1  0.00015800  0.49307700  0.34152000  1
  Cr  Cr5  1  0.50374800  0.15609000  0.44211300  1
  Fe  Fe6  1  1.00000000  0.50000000  0.11379000  1
  Co  Co7  1  0.50000000  0.50000000  0.22759000  1
  Cu  Cu8  1  0.49975100  0.33877200  0.34103700  1
  Ni  Ni9  1  0.50449200  0.44920900  0.44827700  1
  Sb  Sb10  1  0.50000000  0.00000000  0.11379000  1
  Sb  Sb11  1  0.00000000  0.00000000  0.22759000  1
  Sb  Sb12  1  0.49977700  0.00116500  0.33960200  1
  Sb  Sb13  1  0.99391800  0.99488700  0.45762000  1
  Sb  Sb14  1  0.50000000  0.50000000  0.00000000  1
  Sb  Sb15  1  1.00000000  0.66768000  0.00000000  1
  Sb  Sb16  1  0.50000000  0.66768000  0.11379000  1
  Sb  Sb17  1  1.00000000  0.66768000  0.22759000  1
  Sb  Sb18  1  0.49985700  0.64627400  0.33926300  1
  Sb  Sb19  1  0.50000000  0.16768000  0.00000000  1
  Sb  Sb20  1  0.00000000  0.16768000  0.11379000  1
  Sb  Sb21  1  0.50000000  0.16768000  0.22759000  1
  Sb  Sb22  1  0.00004900  0.18557400  0.34409400  1
  Sb  Sb23  1  1.00000000  0.83232000  0.11379000  1
  Sb  Sb24  1  0.50000000  0.83232000  0.22759000  1
  Sb  Sb25  1  0.00011700  0.82908200  0.34035800  1
  Sb  Sb26  1  0.00000000  0.33232000  0.00000000  1
  Sb  Sb27  1  0.50000000  0.33232000  0.11379000  1
  Sb  Sb28  1  0.00000000  0.33232000  0.22759000  1
  Sb  Sb29  1  0.00460400  0.33422400  0.46054600  1
  Cl  Cl30  1  0.51114800  0.51937700  0.51736700  1
  O  O31  1  1.00000000  0.82836000  0.04494000  1
  O  O32  1  0.50000000  0.82836000  0.15874000  1
  O  O33  1  0.99980400  0.84474300  0.27065200  1
  O  O34  1  0.49771100  0.82528900  0.38319100  1
  O  O35  1  0.50000000  0.82836000  0.06885000  1
  O  O36  1  1.00000000  0.82836000  0.18264000  1
  O  O37  1  0.50043200  0.83303600  0.29664500  1
  O  O38  1  0.00608400  0.84665900  0.40750400  1
  O  O39  1  0.30253000  0.32836000  0.00000000  1
  O  O40  1  0.80253000  0.32836000  0.11379000  1
  O  O41  1  0.30253000  0.32836000  0.22759000  1
  O  O42  1  0.79523300  0.33059000  0.34235400  1
  O  O43  1  0.31248700  0.29762100  0.45100000  1
  O  O44  1  0.69747000  0.32836000  0.00000000  1
  O  O45  1  0.19747000  0.32836000  0.11379000  1
  O  O46  1  0.69747000  0.32836000  0.22759000  1
  O  O47  1  0.20449000  0.33069100  0.34185400  1
  O  O48  1  0.69585100  0.29716300  0.45066900  1
  O  O49  1  0.30253000  0.67164000  0.00000000  1
  O  O50  1  0.80253000  0.67164000  0.11379000  1
  O  O51  1  0.30253000  0.67164000  0.22759000  1
  O  O52  1  0.80559000  0.67220200  0.34125600  1
  O  O53  1  0.25357800  0.72757500  0.46042900  1
  O  O54  1  0.69747000  0.67164000  0.00000000  1
  O  O55  1  0.19747000  0.67164000  0.11379000  1
  O  O56  1  0.69747000  0.67164000  0.22759000  1
  O  O57  1  0.19405400  0.67214000  0.34024800  1
  O  O58  1  0.76052100  0.72738400  0.46046000  1
  O  O59  1  0.00000000  0.17164000  0.04494000  1
  O  O60  1  0.50000000  0.17164000  0.15874000  1
  O  O61  1  0.99978400  0.15531300  0.27066400  1
  O  O62  1  0.49945300  0.15725400  0.38179800  1
  O  O63  1  0.50000000  0.17164000  0.06885000  1
  O  O64  1  0.00000000  0.17164000  0.18264000  1
  O  O65  1  0.50056200  0.15512100  0.29417000  1
  O  O66  1  0.00358300  0.15895500  0.41427300  1
  O  O67  1  1.00000000  0.50000000  0.04332000  1
  O  O68  1  0.50000000  0.50000000  0.15711000  1
  O  O69  1  0.99950800  0.50002000  0.27169600  1
  O  O70  1  0.49742400  0.50974300  0.38733800  1
  O  O71  1  0.50000000  0.50000000  0.07048000  1
  O  O72  1  1.00000000  0.50000000  0.18427000  1
  O  O73  1  0.50147100  0.50320800  0.29197400  1
  O  O74  1  0.00539900  0.50807200  0.41965300  1
  O  O75  1  0.30966000  0.00000000  0.00000000  1
  O  O76  1  0.80966000  0.00000000  0.11379000  1
  O  O77  1  0.30966000  0.00000000  0.22759000  1
  O  O78  1  0.80869400  0.99564800  0.33954500  1
  O  O79  1  0.32518000  0.99424800  0.45002100  1
  O  O80  1  0.69034000  0.00000000  0.00000000  1
  O  O81  1  0.19034000  0.00000000  0.11379000  1
  O  O82  1  0.69034000  0.00000000  0.22759000  1
  O  O83  1  0.19128800  0.99602100  0.33888800  1
  O  O84  1  0.68065400  0.99462000  0.45040300  1
