# generated using pymatgen
data_MgTiMnVZnCrFeCoCuNiSb20ClO54
_symmetry_space_group_name_H-M   'P 1'
_cell_length_a   6.68273900
_cell_length_b   9.60261300
_cell_length_c   29.27683200
_cell_angle_alpha   90.15406000
_cell_angle_beta   89.99333800
_cell_angle_gamma   89.85681600
_symmetry_Int_Tables_number   1
_chemical_formula_structural   MgTiMnVZnCrFeCoCuNiSb20ClO54
_chemical_formula_sum
'Mg1 Ti1 Mn1 V1 Zn1 Cr1 Fe1 Co1 Cu1 Ni1 Sb20 Cl1 O54'
_cell_volume   1878.73305886
_cell_formula_units_Z   1
loop_
 _symmetry_equiv_pos_site_id
 _symmetry_equiv_pos_as_xyz
  1  'x, y, z'
loop_
 _atom_site_type_symbol
 _atom_site_label
 _atom_site_symmetry_multiplicity
 _atom_site_fract_x
 _atom_site_fract_y
 _atom_site_fract_z
 _atom_site_occupancy
  Mg  Mg0  1  0.50000000  0.83232000  1.00000000  1
  Ti  Ti1  1  0.00000000  0.50000000  0.11379000  1
  Mn  Mn2  1  0.98855300  0.34270000  0.43796500  1
  V  V3  1  0.99727900  0.50240400  0.33975600  1
  Zn  Zn4  1  0.00000000  0.83232000  0.11379000  1
  Cr  Cr5  1  0.01168800  0.66064800  0.44034600  1
  Fe  Fe6  1  0.99765400  0.82319500  0.34106100  1
  Co  Co7  1  0.50000000  0.50000000  1.00000000  1
  Cu  Cu8  1  0.50000000  1.00000000  0.11379000  1
  Ni  Ni9  1  0.47019700  0.50810400  0.45585800  1
  Sb  Sb10  1  0.00000000  0.00000000  0.00000000  1
  Sb  Sb11  1  0.00000000  1.00000000  0.22759000  1
  Sb  Sb12  1  0.49946000  0.00094200  0.35291900  1
  Sb  Sb13  1  0.99731900  0.97728500  0.46362300  1
  Sb  Sb14  1  0.50000000  0.50000000  0.22759000  1
  Sb  Sb15  1  1.00000000  0.33232000  1.00000000  1
  Sb  Sb16  1  0.50000000  0.33232000  0.11379000  1
  Sb  Sb17  1  1.00000000  0.33232000  0.22759000  1
  Sb  Sb18  1  0.49668100  0.34618600  0.34622900  1
  Sb  Sb19  1  0.50000000  0.83232000  0.22759000  1
  Sb  Sb20  1  0.50120300  0.83673600  0.46324400  1
  Sb  Sb21  1  0.50000000  0.16768000  1.00000000  1
  Sb  Sb22  1  1.00000000  0.16768000  0.11379000  1
  Sb  Sb23  1  0.50000000  0.16768000  0.22759000  1
  Sb  Sb24  1  0.99957800  0.14829100  0.34887100  1
  Sb  Sb25  1  0.49500300  0.21747300  0.46511300  1
  Sb  Sb26  1  0.00000000  0.66768000  1.00000000  1
  Sb  Sb27  1  0.50000000  0.66768000  0.11379000  1
  Sb  Sb28  1  0.00000000  0.66768000  0.22759000  1
  Sb  Sb29  1  0.49797200  0.66653800  0.34246200  1
  Cl  Cl30  1  0.49470300  0.47167000  0.52945300  1
  O  O31  1  0.00000000  0.17164000  0.04494000  1
  O  O32  1  0.50000000  0.17164000  0.15874000  1
  O  O33  1  0.00019600  0.15525700  0.27065200  1
  O  O34  1  0.49645500  0.19444200  0.39229000  1
  O  O35  1  0.50000000  0.17164000  0.06885000  1
  O  O36  1  0.00000000  0.17164000  0.18264000  1
  O  O37  1  0.50033900  0.18259000  0.30012600  1
  O  O38  1  0.99772900  0.15097300  0.42487500  1
  O  O39  1  0.69747000  0.67164000  1.00000000  1
  O  O40  1  0.19747000  0.67164000  0.11379000  1
  O  O41  1  0.69747000  0.67164000  0.22759000  1
  O  O42  1  0.19329500  0.66165600  0.33795600  1
  O  O43  1  0.81205900  0.65729000  0.47237300  1
  O  O44  1  0.30253000  0.67164000  1.00000000  1
  O  O45  1  0.80253000  0.67164000  0.11379000  1
  O  O46  1  0.30253000  0.67164000  0.22759000  1
  O  O47  1  0.80123400  0.66319800  0.33735600  1
  O  O48  1  0.24524500  0.64784300  0.46324600  1
  O  O49  1  0.69747000  0.32836000  1.00000000  1
  O  O50  1  0.19747000  0.32836000  0.11379000  1
  O  O51  1  0.69747000  0.32836000  0.22759000  1
  O  O52  1  0.19442400  0.36168400  0.33840600  1
  O  O53  1  0.71463800  0.35832800  0.44854500  1
  O  O54  1  0.30253000  0.32836000  1.00000000  1
  O  O55  1  0.80253000  0.32836000  0.11379000  1
  O  O56  1  0.30253000  0.32836000  0.22759000  1
  O  O57  1  0.80212800  0.36491800  0.33946100  1
  O  O58  1  0.26586200  0.35387900  0.44834400  1
  O  O59  1  1.00000000  0.82836000  0.04494000  1
  O  O60  1  0.50000000  0.82836000  0.15874000  1
  O  O61  1  0.00021600  0.84468700  0.27066400  1
  O  O62  1  0.50265600  0.80691800  0.39245200  1
  O  O63  1  0.50000000  0.82836000  0.06885000  1
  O  O64  1  0.00000000  0.82836000  0.18264000  1
  O  O65  1  0.49634100  0.83003400  0.29802800  1
  O  O66  1  0.00313800  0.82526700  0.41171100  1
  O  O67  1  1.00000000  0.50000000  0.04332000  1
  O  O68  1  0.50000000  0.50000000  0.15711000  1
  O  O69  1  0.00049200  0.49998000  0.27169600  1
  O  O70  1  0.49545000  0.51362500  0.38838400  1
  O  O71  1  0.50000000  0.50000000  0.07048000  1
  O  O72  1  1.00000000  0.50000000  0.18427000  1
  O  O73  1  0.49889300  0.50179300  0.29835100  1
  O  O74  1  0.99324300  0.51281400  0.40373900  1
  O  O75  1  0.69034000  1.00000000  0.00000000  1
  O  O76  1  0.19034000  1.00000000  0.11379000  1
  O  O77  1  0.69034000  1.00000000  0.22759000  1
  O  O78  1  0.18888500  0.98219900  0.34335100  1
  O  O79  1  0.69235500  0.99289000  0.44784500  1
  O  O80  1  0.30966000  1.00000000  0.00000000  1
  O  O81  1  0.80966000  1.00000000  0.11379000  1
  O  O82  1  0.30966000  1.00000000  0.22759000  1
  O  O83  1  0.81071000  0.98127100  0.34296300  1
  O  O84  1  0.30453200  0.98895200  0.44903500  1
