# generated using pymatgen
data_MgTiMnVZnCrFeCoCuNiSb20ClO54
_symmetry_space_group_name_H-M   'P 1'
_cell_length_a   6.72288900
_cell_length_b   9.49864300
_cell_length_c   28.80826600
_cell_angle_alpha   89.70045700
_cell_angle_beta   89.95758300
_cell_angle_gamma   89.99451300
_symmetry_Int_Tables_number   1
_chemical_formula_structural   MgTiMnVZnCrFeCoCuNiSb20ClO54
_chemical_formula_sum
'Mg1 Ti1 Mn1 V1 Zn1 Cr1 Fe1 Co1 Cu1 Ni1 Sb20 Cl1 O54'
_cell_volume   1839.62188949
_cell_formula_units_Z   1
loop_
 _symmetry_equiv_pos_site_id
 _symmetry_equiv_pos_as_xyz
  1  'x, y, z'
loop_
 _atom_site_type_symbol
 _atom_site_label
 _atom_site_symmetry_multiplicity
 _atom_site_fract_x
 _atom_site_fract_y
 _atom_site_fract_z
 _atom_site_occupancy
  Mg  Mg0  1  0.50000000  0.33232000  0.88621000  1
  Ti  Ti1  1  0.50000000  1.00000000  0.88621000  1
  Mn  Mn2  1  0.50043700  0.33023100  0.66151000  1
  V  V3  1  1.00000000  0.50000000  0.88621000  1
  Zn  Zn4  1  0.50000000  0.16768000  0.77241000  1
  Cr  Cr5  1  1.00000000  1.00000000  0.77241000  1
  Fe  Fe6  1  0.00179200  0.66943600  0.56299500  1
  Co  Co7  1  1.00000000  0.16768000  0.88621000  1
  Cu  Cu8  1  0.00293000  0.01292100  0.54601200  1
  Ni  Ni9  1  0.50085400  0.49038200  0.54709100  1
  Sb  Sb10  1  0.00000000  0.00000000  0.00000000  1
  Sb  Sb11  1  0.50130800  0.00509600  0.66145500  1
  Sb  Sb12  1  0.50000000  0.50000000  0.00000000  1
  Sb  Sb13  1  0.50000000  0.50000000  0.77241000  1
  Sb  Sb14  1  0.00181400  0.49134600  0.65474400  1
  Sb  Sb15  1  0.00000000  0.33232000  0.00000000  1
  Sb  Sb16  1  1.00000000  0.33232000  0.77241000  1
  Sb  Sb17  1  0.00156400  0.31172400  0.53722800  1
  Sb  Sb18  1  0.50000000  0.83232000  0.00000000  1
  Sb  Sb19  1  1.00000000  0.83232000  0.88621000  1
  Sb  Sb20  1  0.50000000  0.83232000  0.77241000  1
  Sb  Sb21  1  0.00236000  0.83354600  0.65768900  1
  Sb  Sb22  1  0.50200900  0.80840300  0.53486100  1
  Sb  Sb23  1  0.50000000  0.16768000  0.00000000  1
  Sb  Sb24  1  0.00101500  0.17118000  0.66019000  1
  Sb  Sb25  1  0.50176800  0.16294200  0.54734200  1
  Sb  Sb26  1  0.00000000  0.66768000  0.00000000  1
  Sb  Sb27  1  0.50000000  0.66768000  0.88621000  1
  Sb  Sb28  1  1.00000000  0.66768000  0.77241000  1
  Sb  Sb29  1  0.50183200  0.65336000  0.64318400  1
  Cl  Cl30  1  0.50518500  0.56688600  0.47316300  1
  O  O31  1  1.00000000  0.17164000  0.95506000  1
  O  O32  1  0.50000000  0.17164000  0.84126000  1
  O  O33  1  0.99980400  0.15525700  0.72934800  1
  O  O34  1  0.49889300  0.16788900  0.61657800  1
  O  O35  1  0.50000000  0.17164000  0.93115000  1
  O  O36  1  1.00000000  0.17164000  0.81736000  1
  O  O37  1  0.50330800  0.17018900  0.70179600  1
  O  O38  1  0.00668100  0.17797100  0.59248300  1
  O  O39  1  0.30253000  0.67164000  0.00000000  1
  O  O40  1  0.80253000  0.67164000  0.88621000  1
  O  O41  1  0.30253000  0.67164000  0.77241000  1
  O  O42  1  0.81485700  0.66176800  0.66103600  1
  O  O43  1  0.28665300  0.65959200  0.55989800  1
  O  O44  1  0.69747000  0.67164000  0.00000000  1
  O  O45  1  0.19747000  0.67164000  0.88621000  1
  O  O46  1  0.69747000  0.67164000  0.77241000  1
  O  O47  1  0.18984800  0.66135900  0.66121700  1
  O  O48  1  0.71624300  0.65968500  0.56076400  1
  O  O49  1  0.30253000  0.32836000  0.00000000  1
  O  O50  1  0.80253000  0.32836000  0.88621000  1
  O  O51  1  0.30253000  0.32836000  0.77241000  1
  O  O52  1  0.80225200  0.33106700  0.66329600  1
  O  O53  1  0.31566100  0.32404200  0.53937800  1
  O  O54  1  0.69747000  0.32836000  0.00000000  1
  O  O55  1  0.19747000  0.32836000  0.88621000  1
  O  O56  1  0.69747000  0.32836000  0.77241000  1
  O  O57  1  0.19941900  0.33117800  0.66460500  1
  O  O58  1  0.68800900  0.32457400  0.54146500  1
  O  O59  1  1.00000000  0.82836000  0.95506000  1
  O  O60  1  0.50000000  0.82836000  0.84126000  1
  O  O61  1  0.99978400  0.84468700  0.72933600  1
  O  O62  1  0.49950900  0.86108900  0.61104100  1
  O  O63  1  0.50000000  0.82836000  0.93115000  1
  O  O64  1  1.00000000  0.82836000  0.81736000  1
  O  O65  1  0.50129400  0.82749000  0.70028500  1
  O  O66  1  0.00325200  0.84392500  0.58826600  1
  O  O67  1  1.00000000  0.50000000  0.95668000  1
  O  O68  1  0.50000000  0.50000000  0.84289000  1
  O  O69  1  0.99950800  0.49998000  0.72830400  1
  O  O70  1  0.49614000  0.45564500  0.61406100  1
  O  O71  1  0.50000000  0.50000000  0.92952000  1
  O  O72  1  1.00000000  0.50000000  0.81573000  1
  O  O73  1  0.50281500  0.49510900  0.70115100  1
  O  O74  1  0.00261200  0.47963100  0.58496500  1
  O  O75  1  0.30966000  0.00000000  0.00000000  1
  O  O76  1  0.80966000  1.00000000  0.88621000  1
  O  O77  1  0.30966000  1.00000000  0.77241000  1
  O  O78  1  0.80862700  0.00381500  0.65914400  1
  O  O79  1  0.29490900  0.01803200  0.53578100  1
  O  O80  1  0.69034000  0.00000000  0.00000000  1
  O  O81  1  0.19034000  1.00000000  0.88621000  1
  O  O82  1  0.69034000  1.00000000  0.77241000  1
  O  O83  1  0.19434300  0.00425600  0.65977100  1
  O  O84  1  0.71071800  0.01866200  0.53689300  1
