# generated using pymatgen
data_MgTiMnVZnCrFeCoCuNiSb20ClO54
_symmetry_space_group_name_H-M   'P 1'
_cell_length_a   6.60652500
_cell_length_b   9.65381500
_cell_length_c   28.81185100
_cell_angle_alpha   89.91387800
_cell_angle_beta   89.97302300
_cell_angle_gamma   89.97171800
_symmetry_Int_Tables_number   1
_chemical_formula_structural   MgTiMnVZnCrFeCoCuNiSb20ClO54
_chemical_formula_sum
'Mg1 Ti1 Mn1 V1 Zn1 Cr1 Fe1 Co1 Cu1 Ni1 Sb20 Cl1 O54'
_cell_volume   1837.56463245
_cell_formula_units_Z   1
loop_
 _symmetry_equiv_pos_site_id
 _symmetry_equiv_pos_as_xyz
  1  'x, y, z'
loop_
 _atom_site_type_symbol
 _atom_site_label
 _atom_site_symmetry_multiplicity
 _atom_site_fract_x
 _atom_site_fract_y
 _atom_site_fract_z
 _atom_site_occupancy
  Mg  Mg0  1  0.00000000  0.00000000  0.00000000  1
  Ti  Ti1  1  0.49588100  0.99818400  0.34548500  1
  Mn  Mn2  1  0.50000000  0.16768000  0.00000000  1
  V  V3  1  0.99812500  0.48635300  0.34268000  1
  Zn  Zn4  1  0.99708800  0.65405500  0.44909000  1
  Cr  Cr5  1  0.50000000  0.66768000  0.11379000  1
  Fe  Fe6  1  0.00000000  0.50000000  0.11379000  1
  Co  Co7  1  0.00000000  0.66768000  0.00000000  1
  Cu  Cu8  1  0.50000000  0.16768000  0.22759000  1
  Ni  Ni9  1  0.50031400  0.48365800  0.45743100  1
  Sb  Sb10  1  0.50000000  0.00000000  0.11379000  1
  Sb  Sb11  1  0.00000000  0.00000000  0.22759000  1
  Sb  Sb12  1  0.00292700  0.98563600  0.47146500  1
  Sb  Sb13  1  0.50000000  0.50000000  0.00000000  1
  Sb  Sb14  1  0.50000000  0.50000000  0.22759000  1
  Sb  Sb15  1  0.00000000  0.66768000  0.22759000  1
  Sb  Sb16  1  0.49940500  0.66593400  0.34267000  1
  Sb  Sb17  1  0.00000000  0.16768000  0.11379000  1
  Sb  Sb18  1  0.98888200  0.15498200  0.34605200  1
  Sb  Sb19  1  0.50121800  0.17779800  0.46481700  1
  Sb  Sb20  1  0.50000000  0.83232000  0.00000000  1
  Sb  Sb21  1  0.00000000  0.83232000  0.11379000  1
  Sb  Sb22  1  0.50000000  0.83232000  0.22759000  1
  Sb  Sb23  1  0.99993400  0.82431300  0.34611700  1
  Sb  Sb24  1  0.49537100  0.78714500  0.46231300  1
  Sb  Sb25  1  0.00000000  0.33232000  0.00000000  1
  Sb  Sb26  1  0.50000000  0.33232000  0.11379000  1
  Sb  Sb27  1  0.00000000  0.33232000  0.22759000  1
  Sb  Sb28  1  0.49583700  0.32980500  0.36082800  1
  Sb  Sb29  1  0.00260300  0.33380000  0.45744100  1
  Cl  Cl30  1  0.50202400  0.35149900  0.52926900  1
  O  O31  1  0.00000000  0.82836000  0.04494000  1
  O  O32  1  0.50000000  0.82836000  0.15874000  1
  O  O33  1  0.99980400  0.84474300  0.27065200  1
  O  O34  1  0.49667800  0.81324300  0.38963600  1
  O  O35  1  0.50000000  0.82836000  0.06885000  1
  O  O36  1  0.00000000  0.82836000  0.18264000  1
  O  O37  1  0.49705700  0.82919900  0.29891100  1
  O  O38  1  0.00237600  0.83386400  0.41484300  1
  O  O39  1  0.30253000  0.32836000  0.00000000  1
  O  O40  1  0.80253000  0.32836000  0.11379000  1
  O  O41  1  0.30253000  0.32836000  0.22759000  1
  O  O42  1  0.80778400  0.36696300  0.33706900  1
  O  O43  1  0.31257400  0.32430200  0.43623700  1
  O  O44  1  0.69747000  0.32836000  0.00000000  1
  O  O45  1  0.19747000  0.32836000  0.11379000  1
  O  O46  1  0.69747000  0.32836000  0.22759000  1
  O  O47  1  0.18354500  0.35903900  0.33839900  1
  O  O48  1  0.69223900  0.32332000  0.43681700  1
  O  O49  1  0.30253000  0.67164000  0.00000000  1
  O  O50  1  0.80253000  0.67164000  0.11379000  1
  O  O51  1  0.30253000  0.67164000  0.22759000  1
  O  O52  1  0.81046100  0.66449500  0.34002100  1
  O  O53  1  0.28704900  0.63936900  0.46943000  1
  O  O54  1  0.69747000  0.67164000  0.00000000  1
  O  O55  1  0.19747000  0.67164000  0.11379000  1
  O  O56  1  0.69747000  0.67164000  0.22759000  1
  O  O57  1  0.18777700  0.66413600  0.33946100  1
  O  O58  1  0.70779100  0.64139900  0.46915500  1
  O  O59  1  0.00000000  0.17164000  0.04494000  1
  O  O60  1  0.50000000  0.17164000  0.15874000  1
  O  O61  1  0.99978400  0.15531300  0.27066400  1
  O  O62  1  0.49842900  0.09261000  0.40118400  1
  O  O63  1  0.50000000  0.17164000  0.06885000  1
  O  O64  1  0.00000000  0.17164000  0.18264000  1
  O  O65  1  0.50021100  0.13860000  0.30707000  1
  O  O66  1  0.00421900  0.14152700  0.42344500  1
  O  O67  1  0.00000000  0.50000000  0.04332000  1
  O  O68  1  0.50000000  0.50000000  0.15711000  1
  O  O69  1  0.99950800  0.50002000  0.27169600  1
  O  O70  1  0.49815600  0.52479700  0.39021000  1
  O  O71  1  0.50000000  0.50000000  0.07048000  1
  O  O72  1  0.00000000  0.50000000  0.18427000  1
  O  O73  1  0.49641400  0.50857100  0.29888800  1
  O  O74  1  0.99921700  0.48674400  0.40762400  1
  O  O75  1  0.30966000  1.00000000  0.00000000  1
  O  O76  1  0.80966000  0.00000000  0.11379000  1
  O  O77  1  0.30966000  0.00000000  0.22759000  1
  O  O78  1  0.80082200  0.97811400  0.34298800  1
  O  O79  1  0.27544500  0.07293600  0.49164100  1
  O  O80  1  0.69034000  1.00000000  1.00000000  1
  O  O81  1  0.19034000  0.00000000  0.11379000  1
  O  O82  1  0.69034000  0.00000000  0.22759000  1
  O  O83  1  0.19082700  0.98411900  0.34240800  1
  O  O84  1  0.72403400  0.06500000  0.49009600  1
