# generated using pymatgen
data_MgTiMnVZnCrFeCoCuNiSb20ClO54
_symmetry_space_group_name_H-M   'P 1'
_cell_length_a   6.68997700
_cell_length_b   9.56377300
_cell_length_c   28.81483700
_cell_angle_alpha   90.32356000
_cell_angle_beta   89.95511300
_cell_angle_gamma   89.97716300
_symmetry_Int_Tables_number   1
_chemical_formula_structural   MgTiMnVZnCrFeCoCuNiSb20ClO54
_chemical_formula_sum
'Mg1 Ti1 Mn1 V1 Zn1 Cr1 Fe1 Co1 Cu1 Ni1 Sb20 Cl1 O54'
_cell_volume   1843.58411627
_cell_formula_units_Z   1
loop_
 _symmetry_equiv_pos_site_id
 _symmetry_equiv_pos_as_xyz
  1  'x, y, z'
loop_
 _atom_site_type_symbol
 _atom_site_label
 _atom_site_symmetry_multiplicity
 _atom_site_fract_x
 _atom_site_fract_y
 _atom_site_fract_z
 _atom_site_occupancy
  Mg  Mg0  1  0.50000000  0.33232000  0.11379000  1
  Ti  Ti1  1  0.00000000  0.83232000  0.11379000  1
  Mn  Mn2  1  1.00000000  0.00000000  0.22759000  1
  V  V3  1  0.00000000  0.00000000  0.00000000  1
  Zn  Zn4  1  0.50000000  0.50000000  1.00000000  1
  Cr  Cr5  1  0.49959600  0.33368600  0.34095000  1
  Fe  Fe6  1  0.00303300  0.66183600  0.44035600  1
  Co  Co7  1  0.00282000  0.00808900  0.44761400  1
  Cu  Cu8  1  0.50000000  1.00000000  0.11379000  1
  Ni  Ni9  1  0.50204600  0.49084500  0.45422400  1
  Sb  Sb10  1  0.49973200  0.00419000  0.34362000  1
  Sb  Sb11  1  0.00000000  0.50000000  0.11379000  1
  Sb  Sb12  1  0.50000000  0.50000000  0.22759000  1
  Sb  Sb13  1  0.00166800  0.49316400  0.35677700  1
  Sb  Sb14  1  0.00000000  0.66768000  0.00000000  1
  Sb  Sb15  1  0.50000000  0.66768000  0.11379000  1
  Sb  Sb16  1  0.00000000  0.66768000  0.22759000  1
  Sb  Sb17  1  0.50041700  0.66075200  0.34824200  1
  Sb  Sb18  1  0.50000000  0.16768000  1.00000000  1
  Sb  Sb19  1  0.00000000  0.16768000  0.11379000  1
  Sb  Sb20  1  0.50000000  0.16768000  0.22759000  1
  Sb  Sb21  1  0.00008100  0.17438000  0.34100100  1
  Sb  Sb22  1  0.50111600  0.16308700  0.45569300  1
  Sb  Sb23  1  0.50000000  0.83232000  1.00000000  1
  Sb  Sb24  1  0.50000000  0.83232000  0.22759000  1
  Sb  Sb25  1  0.99995700  0.83417700  0.34172200  1
  Sb  Sb26  1  0.50365400  0.79724200  0.46689300  1
  Sb  Sb27  1  0.00000000  0.33232000  0.00000000  1
  Sb  Sb28  1  0.00000000  0.33232000  0.22759000  1
  Sb  Sb29  1  0.00075700  0.29557300  0.47084700  1
  Cl  Cl30  1  0.51029300  0.56631900  0.52903800  1
  O  O31  1  0.00000000  0.82836000  0.04494000  1
  O  O32  1  0.50000000  0.82836000  0.15874000  1
  O  O33  1  0.99980400  0.84474300  0.27065200  1
  O  O34  1  0.49966100  0.83464900  0.38961800  1
  O  O35  1  0.50000000  0.82836000  0.06885000  1
  O  O36  1  0.00000000  0.82836000  0.18264000  1
  O  O37  1  0.50173400  0.82811500  0.29836800  1
  O  O38  1  0.00308100  0.83779500  0.41115800  1
  O  O39  1  0.30253000  0.32836000  0.00000000  1
  O  O40  1  0.80253000  0.32836000  0.11379000  1
  O  O41  1  0.30253000  0.32836000  0.22759000  1
  O  O42  1  0.79560700  0.32635000  0.33876100  1
  O  O43  1  0.31375500  0.32398200  0.46405600  1
  O  O44  1  0.69747000  0.32836000  1.00000000  1
  O  O45  1  0.19747000  0.32836000  0.11379000  1
  O  O46  1  0.69747000  0.32836000  0.22759000  1
  O  O47  1  0.20420900  0.32615400  0.33741100  1
  O  O48  1  0.69045700  0.32439000  0.46067500  1
  O  O49  1  0.30253000  0.67164000  0.00000000  1
  O  O50  1  0.80253000  0.67164000  0.11379000  1
  O  O51  1  0.30253000  0.67164000  0.22759000  1
  O  O52  1  0.79651700  0.68091300  0.33642700  1
  O  O53  1  0.27897600  0.66238000  0.44577000  1
  O  O54  1  0.69747000  0.67164000  1.00000000  1
  O  O55  1  0.19747000  0.67164000  0.11379000  1
  O  O56  1  0.69747000  0.67164000  0.22759000  1
  O  O57  1  0.20455700  0.68130100  0.33615900  1
  O  O58  1  0.72618100  0.66118300  0.44397300  1
  O  O59  1  0.00000000  0.17164000  0.04494000  1
  O  O60  1  0.50000000  0.17164000  0.15874000  1
  O  O61  1  0.99978400  0.15531300  0.27066400  1
  O  O62  1  0.49622500  0.17734700  0.38576300  1
  O  O63  1  0.50000000  0.17164000  0.06885000  1
  O  O64  1  0.00000000  0.17164000  0.18264000  1
  O  O65  1  0.50230700  0.17273800  0.29698100  1
  O  O66  1  0.00799300  0.17838000  0.40978400  1
  O  O67  1  0.00000000  0.50000000  0.04332000  1
  O  O68  1  0.50000000  0.50000000  0.15711000  1
  O  O69  1  0.99950800  0.50002000  0.27169600  1
  O  O70  1  0.49513100  0.48518100  0.38545300  1
  O  O71  1  0.50000000  0.50000000  0.07048000  1
  O  O72  1  0.00000000  0.50000000  0.18427000  1
  O  O73  1  0.50129000  0.49975700  0.29922900  1
  O  O74  1  0.00709400  0.47065500  0.43408000  1
  O  O75  1  0.30966000  0.00000000  0.00000000  1
  O  O76  1  0.80966000  1.00000000  0.11379000  1
  O  O77  1  0.30966000  0.00000000  0.22759000  1
  O  O78  1  0.81031700  0.00452100  0.34204500  1
  O  O79  1  0.28320900  0.01214200  0.46153900  1
  O  O80  1  0.69034000  1.00000000  1.00000000  1
  O  O81  1  0.19034000  0.00000000  0.11379000  1
  O  O82  1  0.69034000  1.00000000  0.22759000  1
  O  O83  1  0.18958100  0.00402000  0.34092300  1
  O  O84  1  0.72190600  0.01468200  0.46120100  1
