# generated using pymatgen
data_MgTiMnVZnCrFeCoCuNiSb20ClO54
_symmetry_space_group_name_H-M   'P 1'
_cell_length_a   6.65454400
_cell_length_b   9.50758200
_cell_length_c   29.30601800
_cell_angle_alpha   89.92060800
_cell_angle_beta   89.94473500
_cell_angle_gamma   89.98748800
_symmetry_Int_Tables_number   1
_chemical_formula_structural   MgTiMnVZnCrFeCoCuNiSb20ClO54
_chemical_formula_sum
'Mg1 Ti1 Mn1 V1 Zn1 Cr1 Fe1 Co1 Cu1 Ni1 Sb20 Cl1 O54'
_cell_volume   1854.14871102
_cell_formula_units_Z   1
loop_
 _symmetry_equiv_pos_site_id
 _symmetry_equiv_pos_as_xyz
  1  'x, y, z'
loop_
 _atom_site_type_symbol
 _atom_site_label
 _atom_site_symmetry_multiplicity
 _atom_site_fract_x
 _atom_site_fract_y
 _atom_site_fract_z
 _atom_site_occupancy
  Mg  Mg0  1  0.50000000  0.16768000  1.00000000  1
  Ti  Ti1  1  0.50117600  0.36240100  0.66160700  1
  Mn  Mn2  1  0.00181700  0.82630700  0.65595600  1
  V  V3  1  0.00000000  0.33232000  0.00000000  1
  Zn  Zn4  1  0.50000000  0.50000000  1.00000000  1
  Cr  Cr5  1  0.50000000  0.83232000  1.00000000  1
  Fe  Fe6  1  0.50425400  0.49685900  0.55074700  1
  Co  Co7  1  0.00000000  0.33232000  0.77241000  1
  Cu  Cu8  1  0.50167300  0.66084900  0.65235000  1
  Ni  Ni9  1  0.50000000  0.66768000  0.88621000  1
  Sb  Sb10  1  0.00000000  0.00000000  0.00000000  1
  Sb  Sb11  1  0.50000000  0.00000000  0.88621000  1
  Sb  Sb12  1  0.00000000  0.00000000  0.77241000  1
  Sb  Sb13  1  0.50130400  0.98957100  0.65997700  1
  Sb  Sb14  1  0.00425000  0.00498500  0.53466200  1
  Sb  Sb15  1  0.00000000  0.50000000  0.88621000  1
  Sb  Sb16  1  0.50000000  0.50000000  0.77241000  1
  Sb  Sb17  1  0.00125200  0.51114200  0.65941600  1
  Sb  Sb18  1  0.00000000  0.66768000  0.00000000  1
  Sb  Sb19  1  0.00000000  0.66768000  0.77241000  1
  Sb  Sb20  1  0.00354300  0.66429300  0.54305600  1
  Sb  Sb21  1  0.00000000  0.16768000  0.88621000  1
  Sb  Sb22  1  0.50000000  0.16768000  0.77241000  1
  Sb  Sb23  1  0.00044700  0.16452200  0.65806100  1
  Sb  Sb24  1  0.50393000  0.18023100  0.55631100  1
  Sb  Sb25  1  0.00000000  0.83232000  0.88621000  1
  Sb  Sb26  1  0.50000000  0.83232000  0.77241000  1
  Sb  Sb27  1  0.50411500  0.81299900  0.54401500  1
  Sb  Sb28  1  0.50000000  0.33232000  0.88621000  1
  Sb  Sb29  1  0.00448200  0.34666500  0.53463300  1
  Cl  Cl30  1  0.50887500  0.52663200  0.47591000  1
  O  O31  1  0.00000000  0.82836000  0.95506000  1
  O  O32  1  0.50000000  0.82836000  0.84126000  1
  O  O33  1  0.00019600  0.84474300  0.72934800  1
  O  O34  1  0.50289800  0.84073400  0.61273100  1
  O  O35  1  0.50000000  0.82836000  0.93115000  1
  O  O36  1  0.00000000  0.82836000  0.81736000  1
  O  O37  1  0.49973600  0.83515200  0.70583500  1
  O  O38  1  0.00602000  0.84266800  0.58162400  1
  O  O39  1  0.69747000  0.32836000  0.00000000  1
  O  O40  1  0.19747000  0.32836000  0.88621000  1
  O  O41  1  0.69747000  0.32836000  0.77241000  1
  O  O42  1  0.20393700  0.35463800  0.66260900  1
  O  O43  1  0.68857200  0.34438400  0.54668000  1
  O  O44  1  0.30253000  0.32836000  1.00000000  1
  O  O45  1  0.80253000  0.32836000  0.88621000  1
  O  O46  1  0.30253000  0.32836000  0.77241000  1
  O  O47  1  0.79859900  0.35526300  0.66239500  1
  O  O48  1  0.31969500  0.34460100  0.54569300  1
  O  O49  1  0.69747000  0.67164000  0.00000000  1
  O  O50  1  0.19747000  0.67164000  0.88621000  1
  O  O51  1  0.69747000  0.67164000  0.77241000  1
  O  O52  1  0.19043300  0.67460800  0.65687300  1
  O  O53  1  0.69547300  0.64876900  0.55892600  1
  O  O54  1  0.30253000  0.67164000  1.00000000  1
  O  O55  1  0.80253000  0.67164000  0.88621000  1
  O  O56  1  0.30253000  0.67164000  0.77241000  1
  O  O57  1  0.81275000  0.67480100  0.65664500  1
  O  O58  1  0.31325600  0.64807700  0.55818000  1
  O  O59  1  0.00000000  0.17164000  0.95506000  1
  O  O60  1  0.50000000  0.17164000  0.84126000  1
  O  O61  1  0.00021600  0.15531300  0.72933600  1
  O  O62  1  0.50501600  0.17552600  0.62277700  1
  O  O63  1  0.50000000  0.17164000  0.93115000  1
  O  O64  1  0.00000000  0.17164000  0.81736000  1
  O  O65  1  0.49985100  0.16279100  0.70394400  1
  O  O66  1  0.00551500  0.17805700  0.57546900  1
  O  O67  1  0.00000000  0.50000000  0.95668000  1
  O  O68  1  0.50000000  0.50000000  0.84289000  1
  O  O69  1  0.00049200  0.50002000  0.72830400  1
  O  O70  1  0.50117100  0.47386800  0.61304700  1
  O  O71  1  0.50000000  0.50000000  0.92952000  1
  O  O72  1  0.00000000  0.50000000  0.81573000  1
  O  O73  1  0.50309700  0.51096000  0.70536000  1
  O  O74  1  0.00387900  0.49205100  0.58718900  1
  O  O75  1  0.69034000  1.00000000  0.00000000  1
  O  O76  1  0.19034000  0.00000000  0.88621000  1
  O  O77  1  0.69034000  1.00000000  0.77241000  1
  O  O78  1  0.19987200  0.98202600  0.65847700  1
  O  O79  1  0.69638700  0.02479200  0.54811100  1
  O  O80  1  0.30966000  0.00000000  1.00000000  1
  O  O81  1  0.80966000  1.00000000  0.88621000  1
  O  O82  1  0.30966000  0.00000000  0.77241000  1
  O  O83  1  0.80297100  0.98124500  0.65879100  1
  O  O84  1  0.31245600  0.02511000  0.54749100  1
