# generated using pymatgen
data_MgTiMnVZnCrFeCoCuNiSb20ClO54
_symmetry_space_group_name_H-M   'P 1'
_cell_length_a   6.67102300
_cell_length_b   9.53072400
_cell_length_c   29.26181700
_cell_angle_alpha   89.72142000
_cell_angle_beta   89.99771600
_cell_angle_gamma   89.99097900
_symmetry_Int_Tables_number   1
_chemical_formula_structural   MgTiMnVZnCrFeCoCuNiSb20ClO54
_chemical_formula_sum
'Mg1 Ti1 Mn1 V1 Zn1 Cr1 Fe1 Co1 Cu1 Ni1 Sb20 Cl1 O54'
_cell_volume   1860.43491673
_cell_formula_units_Z   1
loop_
 _symmetry_equiv_pos_site_id
 _symmetry_equiv_pos_as_xyz
  1  'x, y, z'
loop_
 _atom_site_type_symbol
 _atom_site_label
 _atom_site_symmetry_multiplicity
 _atom_site_fract_x
 _atom_site_fract_y
 _atom_site_fract_z
 _atom_site_occupancy
  Mg  Mg0  1  0.50000000  1.00000000  0.88621000  1
  Ti  Ti1  1  0.00000000  0.66768000  0.00000000  1
  Mn  Mn2  1  0.00008300  0.83920600  0.65671200  1
  V  V3  1  0.50000000  0.50000000  1.00000000  1
  Zn  Zn4  1  0.99978400  0.33793700  0.55288200  1
  Cr  Cr5  1  0.50000000  0.33232000  0.88621000  1
  Fe  Fe6  1  0.49922100  0.49560100  0.54665100  1
  Co  Co7  1  0.50026900  0.99503300  0.66017300  1
  Cu  Cu8  1  0.49939700  0.18328700  0.54964700  1
  Ni  Ni9  1  0.50000000  0.83232000  0.77241000  1
  Sb  Sb10  1  0.00000000  0.00000000  0.00000000  1
  Sb  Sb11  1  0.00000000  0.00000000  0.77241000  1
  Sb  Sb12  1  0.99897000  0.99502200  0.53792800  1
  Sb  Sb13  1  0.00000000  0.50000000  0.88621000  1
  Sb  Sb14  1  0.50000000  0.50000000  0.77241000  1
  Sb  Sb15  1  0.99992900  0.50914200  0.65672900  1
  Sb  Sb16  1  0.50000000  0.66768000  0.88621000  1
  Sb  Sb17  1  0.00000000  0.66768000  0.77241000  1
  Sb  Sb18  1  0.50024600  0.67953200  0.65692700  1
  Sb  Sb19  1  0.99933200  0.65864800  0.54143100  1
  Sb  Sb20  1  0.50000000  0.16768000  1.00000000  1
  Sb  Sb21  1  0.00000000  0.16768000  0.88621000  1
  Sb  Sb22  1  0.50000000  0.16768000  0.77241000  1
  Sb  Sb23  1  0.00035200  0.14503000  0.65192400  1
  Sb  Sb24  1  0.50000000  0.83232000  1.00000000  1
  Sb  Sb25  1  0.00000000  0.83232000  0.88621000  1
  Sb  Sb26  1  0.49866600  0.84346400  0.54270700  1
  Sb  Sb27  1  0.00000000  0.33232000  0.00000000  1
  Sb  Sb28  1  0.00000000  0.33232000  0.77241000  1
  Sb  Sb29  1  0.50015400  0.32934800  0.65626600  1
  Cl  Cl30  1  0.49656000  0.51361400  0.47221600  1
  O  O31  1  0.00000000  0.82836000  0.95506000  1
  O  O32  1  0.50000000  0.82836000  0.84126000  1
  O  O33  1  0.00019600  0.84474300  0.72934800  1
  O  O34  1  0.50051100  0.83584600  0.61228200  1
  O  O35  1  0.50000000  0.82836000  0.93115000  1
  O  O36  1  0.00000000  0.82836000  0.81736000  1
  O  O37  1  0.49998100  0.83398100  0.70172300  1
  O  O38  1  0.99878500  0.82835200  0.58519500  1
  O  O39  1  0.69747000  0.32836000  0.00000000  1
  O  O40  1  0.19747000  0.32836000  0.88621000  1
  O  O41  1  0.69747000  0.32836000  0.77241000  1
  O  O42  1  0.19205800  0.34311200  0.66045300  1
  O  O43  1  0.68536900  0.34777400  0.54666500  1
  O  O44  1  0.30253000  0.32836000  1.00000000  1
  O  O45  1  0.80253000  0.32836000  0.88621000  1
  O  O46  1  0.30253000  0.32836000  0.77241000  1
  O  O47  1  0.80813700  0.34289600  0.66092800  1
  O  O48  1  0.31325200  0.34731500  0.54729100  1
  O  O49  1  0.69747000  0.67164000  0.00000000  1
  O  O50  1  0.19747000  0.67164000  0.88621000  1
  O  O51  1  0.69747000  0.67164000  0.77241000  1
  O  O52  1  0.18943000  0.67414000  0.66057300  1
  O  O53  1  0.68634000  0.63961000  0.55187800  1
  O  O54  1  0.30253000  0.67164000  1.00000000  1
  O  O55  1  0.80253000  0.67164000  0.88621000  1
  O  O56  1  0.30253000  0.67164000  0.77241000  1
  O  O57  1  0.81076900  0.67406600  0.66090300  1
  O  O58  1  0.31143800  0.63935500  0.55238400  1
  O  O59  1  0.00000000  0.17164000  0.95506000  1
  O  O60  1  0.50000000  0.17164000  0.84126000  1
  O  O61  1  0.00021600  0.15531300  0.72933600  1
  O  O62  1  0.50104800  0.15822900  0.62016100  1
  O  O63  1  0.50000000  0.17164000  0.93115000  1
  O  O64  1  0.00000000  0.17164000  0.81736000  1
  O  O65  1  0.49880300  0.17563500  0.70521000  1
  O  O66  1  0.99649600  0.15600800  0.58236800  1
  O  O67  1  0.00000000  0.50000000  0.95668000  1
  O  O68  1  0.50000000  0.50000000  0.84289000  1
  O  O69  1  0.00049200  0.50002000  0.72830400  1
  O  O70  1  0.50140500  0.50180500  0.61621500  1
  O  O71  1  0.50000000  0.50000000  0.92952000  1
  O  O72  1  0.00000000  0.50000000  0.81573000  1
  O  O73  1  0.49975600  0.49996500  0.70193300  1
  O  O74  1  0.99741200  0.50789900  0.59029500  1
  O  O75  1  0.69034000  0.00000000  0.00000000  1
  O  O76  1  0.19034000  1.00000000  0.88621000  1
  O  O77  1  0.69034000  0.00000000  0.77241000  1
  O  O78  1  0.19459100  0.97830700  0.65652800  1
  O  O79  1  0.68792700  0.01606800  0.54492700  1
  O  O80  1  0.30966000  1.00000000  1.00000000  1
  O  O81  1  0.80966000  0.00000000  0.88621000  1
  O  O82  1  0.30966000  1.00000000  0.77241000  1
  O  O83  1  0.80607600  0.97873500  0.65696800  1
  O  O84  1  0.30956000  0.01635000  0.54581300  1
