# generated using pymatgen
data_MgTiMnVZnCrFeCoCuNiSb20ClO54
_symmetry_space_group_name_H-M   'P 1'
_cell_length_a   6.65567300
_cell_length_b   9.55101200
_cell_length_c   28.93244100
_cell_angle_alpha   89.76427700
_cell_angle_beta   89.96413000
_cell_angle_gamma   89.96763500
_symmetry_Int_Tables_number   1
_chemical_formula_structural   MgTiMnVZnCrFeCoCuNiSb20ClO54
_chemical_formula_sum
'Mg1 Ti1 Mn1 V1 Zn1 Cr1 Fe1 Co1 Cu1 Ni1 Sb20 Cl1 O54'
_cell_volume   1839.17313327
_cell_formula_units_Z   1
loop_
 _symmetry_equiv_pos_site_id
 _symmetry_equiv_pos_as_xyz
  1  'x, y, z'
loop_
 _atom_site_type_symbol
 _atom_site_label
 _atom_site_symmetry_multiplicity
 _atom_site_fract_x
 _atom_site_fract_y
 _atom_site_fract_z
 _atom_site_occupancy
  Mg  Mg0  1  0.99893500  0.66087400  0.55847600  1
  Ti  Ti1  1  0.50000000  1.00000000  0.88621000  1
  Mn  Mn2  1  0.50000000  0.83232000  1.00000000  1
  V  V3  1  0.50000000  0.66768000  0.88621000  1
  Zn  Zn4  1  1.00000000  0.16768000  0.88621000  1
  Cr  Cr5  1  0.99720600  0.49648500  0.66216700  1
  Fe  Fe6  1  0.49874600  0.51371000  0.54379900  1
  Co  Co7  1  1.00000000  0.66768000  0.77241000  1
  Cu  Cu8  1  1.00000000  0.83232000  0.88621000  1
  Ni  Ni9  1  0.50113600  0.79633700  0.54723300  1
  Sb  Sb10  1  0.00000000  0.00000000  0.00000000  1
  Sb  Sb11  1  1.00000000  1.00000000  0.77241000  1
  Sb  Sb12  1  0.49729300  0.99871400  0.65642300  1
  Sb  Sb13  1  0.99997000  0.97079700  0.53195400  1
  Sb  Sb14  1  0.50000000  0.50000000  1.00000000  1
  Sb  Sb15  1  1.00000000  0.50000000  0.88621000  1
  Sb  Sb16  1  0.50000000  0.50000000  0.77241000  1
  Sb  Sb17  1  1.00000000  0.66768000  1.00000000  1
  Sb  Sb18  1  0.49809500  0.66940800  0.66065400  1
  Sb  Sb19  1  0.50000000  0.16768000  1.00000000  1
  Sb  Sb20  1  0.50000000  0.16768000  0.77241000  1
  Sb  Sb21  1  0.99458000  0.18830300  0.65136200  1
  Sb  Sb22  1  0.49628800  0.13123000  0.53209600  1
  Sb  Sb23  1  0.50000000  0.83232000  0.77241000  1
  Sb  Sb24  1  0.99800400  0.83283700  0.65909400  1
  Sb  Sb25  1  1.00000000  0.33232000  1.00000000  1
  Sb  Sb26  1  0.50000000  0.33232000  0.88621000  1
  Sb  Sb27  1  1.00000000  0.33232000  0.77241000  1
  Sb  Sb28  1  0.49679400  0.34202800  0.62931800  1
  Sb  Sb29  1  0.99642200  0.36234500  0.54269300  1
  Cl  Cl30  1  0.49410100  0.45166500  0.47166700  1
  O  O31  1  1.00000000  0.82836000  0.95506000  1
  O  O32  1  0.50000000  0.82836000  0.84126000  1
  O  O33  1  0.00019600  0.84474300  0.72934800  1
  O  O34  1  0.49969500  0.82926000  0.61612200  1
  O  O35  1  0.50000000  0.82836000  0.93115000  1
  O  O36  1  1.00000000  0.82836000  0.81736000  1
  O  O37  1  0.49472000  0.83695400  0.70387500  1
  O  O38  1  0.99320800  0.84148200  0.58969700  1
  O  O39  1  0.69747000  0.32836000  1.00000000  1
  O  O40  1  0.19747000  0.32836000  0.88621000  1
  O  O41  1  0.69747000  0.32836000  0.77241000  1
  O  O42  1  0.19069500  0.35295800  0.66344800  1
  O  O43  1  0.68020900  0.35411000  0.56142800  1
  O  O44  1  0.30253000  0.32836000  1.00000000  1
  O  O45  1  0.80253000  0.32836000  0.88621000  1
  O  O46  1  0.30253000  0.32836000  0.77241000  1
  O  O47  1  0.80238900  0.35548100  0.66473700  1
  O  O48  1  0.31815700  0.35890900  0.56279800  1
  O  O49  1  0.69747000  0.67164000  1.00000000  1
  O  O50  1  0.19747000  0.67164000  0.88621000  1
  O  O51  1  0.69747000  0.67164000  0.77241000  1
  O  O52  1  0.19026900  0.67005400  0.66061500  1
  O  O53  1  0.69862100  0.64587900  0.53760700  1
  O  O54  1  0.30253000  0.67164000  1.00000000  1
  O  O55  1  0.80253000  0.67164000  0.88621000  1
  O  O56  1  0.30253000  0.67164000  0.77241000  1
  O  O57  1  0.80584900  0.67066000  0.66239800  1
  O  O58  1  0.30103300  0.64757400  0.53928500  1
  O  O59  1  1.00000000  0.17164000  0.95506000  1
  O  O60  1  0.50000000  0.17164000  0.84126000  1
  O  O61  1  0.00021600  0.15531300  0.72933600  1
  O  O62  1  0.50099600  0.12978300  0.60420500  1
  O  O63  1  0.50000000  0.17164000  0.93115000  1
  O  O64  1  1.00000000  0.17164000  0.81736000  1
  O  O65  1  0.49828200  0.15682400  0.70115800  1
  O  O66  1  0.00380200  0.15943300  0.56405100  1
  O  O67  1  1.00000000  0.50000000  0.95668000  1
  O  O68  1  0.50000000  0.50000000  0.84289000  1
  O  O69  1  0.00049200  0.50002000  0.72830400  1
  O  O70  1  0.50782400  0.54513200  0.60890500  1
  O  O71  1  0.50000000  0.50000000  0.92952000  1
  O  O72  1  1.00000000  0.50000000  0.81573000  1
  O  O73  1  0.49415700  0.50730200  0.70233800  1
  O  O74  1  0.99482300  0.49445100  0.59668100  1
  O  O75  1  0.69034000  0.00000000  1.00000000  1
  O  O76  1  0.19034000  1.00000000  0.88621000  1
  O  O77  1  0.69034000  0.00000000  0.77241000  1
  O  O78  1  0.19879300  0.99011600  0.66115900  1
  O  O79  1  0.68696000  0.96767200  0.53840600  1
  O  O80  1  0.30966000  1.00000000  0.00000000  1
  O  O81  1  0.80966000  0.00000000  0.88621000  1
  O  O82  1  0.30966000  1.00000000  0.77241000  1
  O  O83  1  0.79510600  0.98816000  0.66247900  1
  O  O84  1  0.31152800  0.96407600  0.54009800  1
