# generated using pymatgen
data_MgTiMnVZnCrFeCoCuNiSb20ClO54
_symmetry_space_group_name_H-M   'P 1'
_cell_length_a   6.70554700
_cell_length_b   9.36266600
_cell_length_c   28.92968100
_cell_angle_alpha   90.11704500
_cell_angle_beta   89.98959400
_cell_angle_gamma   89.99625500
_symmetry_Int_Tables_number   1
_chemical_formula_structural   MgTiMnVZnCrFeCoCuNiSb20ClO54
_chemical_formula_sum
'Mg1 Ti1 Mn1 V1 Zn1 Cr1 Fe1 Co1 Cu1 Ni1 Sb20 Cl1 O54'
_cell_volume   1816.25353356
_cell_formula_units_Z   1
loop_
 _symmetry_equiv_pos_site_id
 _symmetry_equiv_pos_as_xyz
  1  'x, y, z'
loop_
 _atom_site_type_symbol
 _atom_site_label
 _atom_site_symmetry_multiplicity
 _atom_site_fract_x
 _atom_site_fract_y
 _atom_site_fract_z
 _atom_site_occupancy
  Mg  Mg0  1  0.00000000  0.66768000  0.77241000  1
  Ti  Ti1  1  0.50027900  0.33401500  0.66331100  1
  Mn  Mn2  1  0.50000000  0.00000000  0.88621000  1
  V  V3  1  0.50000000  0.50000000  0.00000000  1
  Zn  Zn4  1  0.50000000  0.66768000  0.88621000  1
  Cr  Cr5  1  0.50000000  0.16768000  0.77241000  1
  Fe  Fe6  1  0.50119700  0.49337600  0.54937100  1
  Co  Co7  1  0.00000000  0.00000000  0.00000000  1
  Cu  Cu8  1  0.50000000  0.16768000  0.00000000  1
  Ni  Ni9  1  0.00008100  0.16785600  0.65648000  1
  Sb  Sb10  1  0.00000000  1.00000000  0.77241000  1
  Sb  Sb11  1  0.50053000  0.00115900  0.66082400  1
  Sb  Sb12  1  0.00061100  0.01229400  0.53402100  1
  Sb  Sb13  1  0.00000000  0.50000000  0.88621000  1
  Sb  Sb14  1  0.50000000  0.50000000  0.77241000  1
  Sb  Sb15  1  0.00128100  0.48633700  0.66003200  1
  Sb  Sb16  1  0.00000000  0.33232000  0.00000000  1
  Sb  Sb17  1  0.50000000  0.33232000  0.88621000  1
  Sb  Sb18  1  1.00000000  0.33232000  0.77241000  1
  Sb  Sb19  1  0.00104800  0.32732400  0.53443900  1
  Sb  Sb20  1  0.50000000  0.83232000  0.00000000  1
  Sb  Sb21  1  0.00000000  0.83232000  0.88621000  1
  Sb  Sb22  1  0.50000000  0.83232000  0.77241000  1
  Sb  Sb23  1  0.00132800  0.83815000  0.65951400  1
  Sb  Sb24  1  0.50064500  0.81233400  0.53608900  1
  Sb  Sb25  1  0.00000000  0.16768000  0.88621000  1
  Sb  Sb26  1  0.50080400  0.17543600  0.55084400  1
  Sb  Sb27  1  0.00000000  0.66768000  0.00000000  1
  Sb  Sb28  1  0.50076600  0.65872800  0.64337400  1
  Sb  Sb29  1  0.00064200  0.65907600  0.54511300  1
  Cl  Cl30  1  0.50635300  0.54452600  0.47477000  1
  O  O31  1  0.00000000  0.17164000  0.95506000  1
  O  O32  1  0.50000000  0.17164000  0.84126000  1
  O  O33  1  0.99980400  0.15525700  0.72934800  1
  O  O34  1  0.49946200  0.16777800  0.61835000  1
  O  O35  1  0.50000000  0.17164000  0.93115000  1
  O  O36  1  0.00000000  0.17164000  0.81736000  1
  O  O37  1  0.50109400  0.16415800  0.70482100  1
  O  O38  1  0.00256100  0.17031000  0.58483400  1
  O  O39  1  0.30253000  0.67164000  1.00000000  1
  O  O40  1  0.80253000  0.67164000  0.88621000  1
  O  O41  1  0.30253000  0.67164000  0.77241000  1
  O  O42  1  0.81759700  0.66549300  0.66131200  1
  O  O43  1  0.31383900  0.65041800  0.56258700  1
  O  O44  1  0.69747000  0.67164000  0.00000000  1
  O  O45  1  0.19747000  0.67164000  0.88621000  1
  O  O46  1  0.69747000  0.67164000  0.77241000  1
  O  O47  1  0.18571100  0.66511100  0.66190400  1
  O  O48  1  0.68654600  0.65087600  0.56350100  1
  O  O49  1  0.30253000  0.32836000  1.00000000  1
  O  O50  1  0.80253000  0.32836000  0.88621000  1
  O  O51  1  0.30253000  0.32836000  0.77241000  1
  O  O52  1  0.80057400  0.33134700  0.66150200  1
  O  O53  1  0.31629200  0.34232200  0.54100300  1
  O  O54  1  0.69747000  0.32836000  0.00000000  1
  O  O55  1  0.19747000  0.32836000  0.88621000  1
  O  O56  1  0.69747000  0.32836000  0.77241000  1
  O  O57  1  0.20005000  0.33018400  0.66241400  1
  O  O58  1  0.68659900  0.34208900  0.54196200  1
  O  O59  1  0.00000000  0.82836000  0.95506000  1
  O  O60  1  0.50000000  0.82836000  0.84126000  1
  O  O61  1  0.99978400  0.84468700  0.72933600  1
  O  O62  1  0.49621100  0.86280300  0.60847900  1
  O  O63  1  0.50000000  0.82836000  0.93115000  1
  O  O64  1  0.00000000  0.82836000  0.81736000  1
  O  O65  1  0.50083800  0.83335400  0.70241200  1
  O  O66  1  0.00229000  0.83659800  0.58886900  1
  O  O67  1  0.00000000  0.50000000  0.95668000  1
  O  O68  1  0.50000000  0.50000000  0.84289000  1
  O  O69  1  0.99950800  0.49998000  0.72830400  1
  O  O70  1  0.49806000  0.44917400  0.61204700  1
  O  O71  1  0.50000000  0.50000000  0.92952000  1
  O  O72  1  0.00000000  0.50000000  0.81573000  1
  O  O73  1  0.50152500  0.49302900  0.70396300  1
  O  O74  1  0.00289000  0.48823200  0.59026700  1
  O  O75  1  0.30966000  1.00000000  1.00000000  1
  O  O76  1  0.80966000  0.00000000  0.88621000  1
  O  O77  1  0.30966000  1.00000000  0.77241000  1
  O  O78  1  0.80324800  0.99878300  0.65809300  1
  O  O79  1  0.31085400  0.01632400  0.54001800  1
  O  O80  1  0.69034000  1.00000000  0.00000000  1
  O  O81  1  0.19034000  1.00000000  0.88621000  1
  O  O82  1  0.69034000  0.00000000  0.77241000  1
  O  O83  1  0.19724600  0.99949000  0.65872600  1
  O  O84  1  0.69102600  0.01599600  0.54117900  1
