# generated using pymatgen
data_MgTiMnVZnCrFeCoCuNiSb20ClO54
_symmetry_space_group_name_H-M   'P 1'
_cell_length_a   6.56239200
_cell_length_b   9.71654900
_cell_length_c   28.52710300
_cell_angle_alpha   89.90302600
_cell_angle_beta   89.75137900
_cell_angle_gamma   89.56581400
_symmetry_Int_Tables_number   1
_chemical_formula_structural   MgTiMnVZnCrFeCoCuNiSb20ClO54
_chemical_formula_sum
'Mg1 Ti1 Mn1 V1 Zn1 Cr1 Fe1 Co1 Cu1 Ni1 Sb20 Cl1 O54'
_cell_volume   1818.92472990
_cell_formula_units_Z   1
loop_
 _symmetry_equiv_pos_site_id
 _symmetry_equiv_pos_as_xyz
  1  'x, y, z'
loop_
 _atom_site_type_symbol
 _atom_site_label
 _atom_site_symmetry_multiplicity
 _atom_site_fract_x
 _atom_site_fract_y
 _atom_site_fract_z
 _atom_site_occupancy
  Mg  Mg0  1  0.50000000  1.00000000  0.11379000  1
  Ti  Ti1  1  0.02666700  0.35747100  0.45486100  1
  Mn  Mn2  1  0.50000000  0.50000000  0.00000000  1
  V  V3  1  0.50000000  0.50000000  0.22759000  1
  Zn  Zn4  1  0.00000000  0.66768000  0.00000000  1
  Cr  Cr5  1  0.00000000  0.50000000  0.11379000  1
  Fe  Fe6  1  0.51880300  0.48972800  0.46526300  1
  Co  Co7  1  1.00000000  0.33232000  0.00000000  1
  Cu  Cu8  1  0.57529900  0.21590000  0.46499700  1
  Ni  Ni9  1  0.00000000  0.00000000  0.00000000  1
  Sb  Sb10  1  1.00000000  0.00000000  0.22759000  1
  Sb  Sb11  1  0.49720200  0.00754100  0.35342600  1
  Sb  Sb12  1  0.00979500  0.00056100  0.46248900  1
  Sb  Sb13  1  0.96520100  0.50561600  0.34716600  1
  Sb  Sb14  1  0.50000000  0.33232000  0.11379000  1
  Sb  Sb15  1  1.00000000  0.33232000  0.22759000  1
  Sb  Sb16  1  0.49244600  0.33087100  0.34103100  1
  Sb  Sb17  1  0.50000000  0.83232000  0.00000000  1
  Sb  Sb18  1  1.00000000  0.83232000  0.11379000  1
  Sb  Sb19  1  0.50000000  0.83232000  0.22759000  1
  Sb  Sb20  1  0.02643200  0.82427800  0.35333200  1
  Sb  Sb21  1  0.49588700  0.81081500  0.47602800  1
  Sb  Sb22  1  0.50000000  0.16768000  0.00000000  1
  Sb  Sb23  1  1.00000000  0.16768000  0.11379000  1
  Sb  Sb24  1  0.50000000  0.16768000  0.22759000  1
  Sb  Sb25  1  0.99179400  0.17594200  0.34362400  1
  Sb  Sb26  1  0.50000000  0.66768000  0.11379000  1
  Sb  Sb27  1  1.00000000  0.66768000  0.22759000  1
  Sb  Sb28  1  0.49949400  0.66110900  0.36005600  1
  Sb  Sb29  1  0.01960000  0.66953000  0.48153700  1
  Cl  Cl30  1  0.50161100  0.53872500  0.53981200  1
  O  O31  1  1.00000000  0.17164000  0.04494000  1
  O  O32  1  0.50000000  0.17164000  0.15874000  1
  O  O33  1  0.00019600  0.15525700  0.27065200  1
  O  O34  1  0.50065000  0.18219700  0.38994800  1
  O  O35  1  0.50000000  0.17164000  0.06885000  1
  O  O36  1  1.00000000  0.17164000  0.18264000  1
  O  O37  1  0.49062200  0.15713900  0.29772900  1
  O  O38  1  0.98274800  0.23133300  0.40838500  1
  O  O39  1  0.69747000  0.67164000  0.00000000  1
  O  O40  1  0.19747000  0.67164000  0.11379000  1
  O  O41  1  0.69747000  0.67164000  0.22759000  1
  O  O42  1  0.19930700  0.63852500  0.33736800  1
  O  O43  1  0.68043800  0.63842200  0.45342000  1
  O  O44  1  0.30253000  0.67164000  0.00000000  1
  O  O45  1  0.80253000  0.67164000  0.11379000  1
  O  O46  1  0.30253000  0.67164000  0.22759000  1
  O  O47  1  0.80722000  0.69032800  0.33190600  1
  O  O48  1  0.31960400  0.64690300  0.45599500  1
  O  O49  1  0.69747000  0.32836000  0.00000000  1
  O  O50  1  0.19747000  0.32836000  0.11379000  1
  O  O51  1  0.69747000  0.32836000  0.22759000  1
  O  O52  1  0.18965400  0.32920200  0.33198700  1
  O  O53  1  0.75120800  0.37282300  0.47575200  1
  O  O54  1  0.30253000  0.32836000  0.00000000  1
  O  O55  1  0.80253000  0.32836000  0.11379000  1
  O  O56  1  0.30253000  0.32836000  0.22759000  1
  O  O57  1  0.78543100  0.30639400  0.32360800  1
  O  O58  1  0.30857200  0.34759500  0.47088700  1
  O  O59  1  0.00000000  0.82836000  0.04494000  1
  O  O60  1  0.50000000  0.82836000  0.15874000  1
  O  O61  1  0.00021600  0.84468700  0.27066400  1
  O  O62  1  0.43192100  0.88979000  0.40888200  1
  O  O63  1  0.50000000  0.82836000  0.06885000  1
  O  O64  1  1.00000000  0.82836000  0.18264000  1
  O  O65  1  0.48334500  0.85720600  0.30597200  1
  O  O66  1  0.93885200  0.81372200  0.43078700  1
  O  O67  1  0.00000000  0.50000000  0.04332000  1
  O  O68  1  0.50000000  0.50000000  0.15711000  1
  O  O69  1  0.00049200  0.49998000  0.27169600  1
  O  O70  1  0.52230400  0.46289200  0.39239700  1
  O  O71  1  0.50000000  0.50000000  0.07048000  1
  O  O72  1  0.00000000  0.50000000  0.18427000  1
  O  O73  1  0.50957300  0.49547000  0.29772700  1
  O  O74  1  0.02694400  0.51814600  0.42531600  1
  O  O75  1  0.69034000  0.00000000  0.00000000  1
  O  O76  1  0.19034000  1.00000000  0.11379000  1
  O  O77  1  0.69034000  0.00000000  0.22759000  1
  O  O78  1  0.19774700  0.03362500  0.34395200  1
  O  O79  1  0.72054300  0.03623000  0.47596900  1
  O  O80  1  0.30966000  1.00000000  0.00000000  1
  O  O81  1  0.80966000  0.00000000  0.11379000  1
  O  O82  1  0.30966000  1.00000000  0.22759000  1
  O  O83  1  0.80544600  0.01129100  0.35078600  1
  O  O84  1  0.15246700  0.85882800  0.50379100  1
