# generated using pymatgen
data_MgTiMnVZnCrFeCoCuNiSb20ClO54
_symmetry_space_group_name_H-M   'P 1'
_cell_length_a   6.68597800
_cell_length_b   9.56694700
_cell_length_c   29.33733800
_cell_angle_alpha   90.13978300
_cell_angle_beta   89.97159700
_cell_angle_gamma   89.96003000
_symmetry_Int_Tables_number   1
_chemical_formula_structural   MgTiMnVZnCrFeCoCuNiSb20ClO54
_chemical_formula_sum
'Mg1 Ti1 Mn1 V1 Zn1 Cr1 Fe1 Co1 Cu1 Ni1 Sb20 Cl1 O54'
_cell_volume   1876.53886634
_cell_formula_units_Z   1
loop_
 _symmetry_equiv_pos_site_id
 _symmetry_equiv_pos_as_xyz
  1  'x, y, z'
loop_
 _atom_site_type_symbol
 _atom_site_label
 _atom_site_symmetry_multiplicity
 _atom_site_fract_x
 _atom_site_fract_y
 _atom_site_fract_z
 _atom_site_occupancy
  Mg  Mg0  1  0.50000000  0.50000000  0.00000000  1
  Ti  Ti1  1  0.99986500  0.79927200  0.33956800  1
  Mn  Mn2  1  0.00000000  0.66768000  0.00000000  1
  V  V3  1  0.50000000  0.16768000  0.22759000  1
  Zn  Zn4  1  0.00000000  0.16768000  0.11379000  1
  Cr  Cr5  1  0.50000000  0.33232000  0.11379000  1
  Fe  Fe6  1  0.50138600  0.50014400  0.44500900  1
  Co  Co7  1  0.50009900  0.66534500  0.34169900  1
  Cu  Cu8  1  0.00304600  0.35436600  0.44192500  1
  Ni  Ni9  1  0.99951300  0.50946700  0.33763600  1
  Sb  Sb10  1  0.00000000  0.00000000  0.00000000  1
  Sb  Sb11  1  0.50000000  0.00000000  0.11379000  1
  Sb  Sb12  1  0.00000000  0.00000000  0.22759000  1
  Sb  Sb13  1  0.50080100  0.99653700  0.34204500  1
  Sb  Sb14  1  0.00298500  0.99366200  0.43930900  1
  Sb  Sb15  1  1.00000000  0.50000000  0.11379000  1
  Sb  Sb16  1  0.50000000  0.50000000  0.22759000  1
  Sb  Sb17  1  0.50000000  0.66768000  0.11379000  1
  Sb  Sb18  1  0.00000000  0.66768000  0.22759000  1
  Sb  Sb19  1  0.99946900  0.63540500  0.45364000  1
  Sb  Sb20  1  0.50000000  0.16768000  0.00000000  1
  Sb  Sb21  1  0.00125900  0.16767800  0.34030200  1
  Sb  Sb22  1  0.50361700  0.20154000  0.46077900  1
  Sb  Sb23  1  0.50000000  0.83232000  0.00000000  1
  Sb  Sb24  1  0.00000000  0.83232000  0.11379000  1
  Sb  Sb25  1  0.50000000  0.83232000  0.22759000  1
  Sb  Sb26  1  0.50144200  0.81083000  0.45749100  1
  Sb  Sb27  1  0.00000000  0.33232000  0.00000000  1
  Sb  Sb28  1  0.00000000  0.33232000  0.22759000  1
  Sb  Sb29  1  0.49986300  0.33560300  0.34073500  1
  Cl  Cl30  1  0.50769900  0.51975500  0.52080600  1
  O  O31  1  0.00000000  0.82836000  0.04494000  1
  O  O32  1  0.50000000  0.82836000  0.15874000  1
  O  O33  1  0.99980400  0.84474300  0.27065200  1
  O  O34  1  0.49866600  0.84422000  0.38739000  1
  O  O35  1  0.50000000  0.82836000  0.06885000  1
  O  O36  1  0.00000000  0.82836000  0.18264000  1
  O  O37  1  0.50256900  0.83885400  0.29657600  1
  O  O38  1  0.99957800  0.81374200  0.40776300  1
  O  O39  1  0.30253000  0.32836000  0.00000000  1
  O  O40  1  0.80253000  0.32836000  0.11379000  1
  O  O41  1  0.30253000  0.32836000  0.22759000  1
  O  O42  1  0.80547200  0.32565900  0.33652400  1
  O  O43  1  0.30311400  0.35484800  0.44837300  1
  O  O44  1  0.69747000  0.32836000  0.00000000  1
  O  O45  1  0.19747000  0.32836000  0.11379000  1
  O  O46  1  0.69747000  0.32836000  0.22759000  1
  O  O47  1  0.19432500  0.32693300  0.33603500  1
  O  O48  1  0.70176700  0.35358600  0.44743900  1
  O  O49  1  0.30253000  0.67164000  0.00000000  1
  O  O50  1  0.80253000  0.67164000  0.11379000  1
  O  O51  1  0.30253000  0.67164000  0.22759000  1
  O  O52  1  0.79899500  0.67703300  0.33550700  1
  O  O53  1  0.31461800  0.64953500  0.44219400  1
  O  O54  1  0.69747000  0.67164000  0.00000000  1
  O  O55  1  0.19747000  0.67164000  0.11379000  1
  O  O56  1  0.69747000  0.67164000  0.22759000  1
  O  O57  1  0.20168500  0.67812400  0.33518900  1
  O  O58  1  0.68724000  0.64816100  0.44029800  1
  O  O59  1  0.00000000  0.17164000  0.04494000  1
  O  O60  1  0.50000000  0.17164000  0.15874000  1
  O  O61  1  0.99978400  0.15531300  0.27066400  1
  O  O62  1  0.49894500  0.16484600  0.38632200  1
  O  O63  1  0.50000000  0.17164000  0.06885000  1
  O  O64  1  0.00000000  0.17164000  0.18264000  1
  O  O65  1  0.50039600  0.16305100  0.29581100  1
  O  O66  1  0.00751500  0.17276300  0.40793200  1
  O  O67  1  0.00000000  0.50000000  0.04332000  1
  O  O68  1  0.50000000  0.50000000  0.15711000  1
  O  O69  1  0.99950800  0.50002000  0.27169600  1
  O  O70  1  0.49850700  0.49875900  0.38206600  1
  O  O71  1  0.50000000  0.50000000  0.07048000  1
  O  O72  1  0.00000000  0.50000000  0.18427000  1
  O  O73  1  0.50081400  0.49738400  0.29623000  1
  O  O74  1  0.00560500  0.51365900  0.40153400  1
  O  O75  1  0.30966000  1.00000000  0.00000000  1
  O  O76  1  0.80966000  0.00000000  0.11379000  1
  O  O77  1  0.30966000  1.00000000  0.22759000  1
  O  O78  1  0.81007300  0.00055800  0.34303100  1
  O  O79  1  0.25913000  0.98908400  0.46688400  1
  O  O80  1  0.69034000  0.00000000  0.00000000  1
  O  O81  1  0.19034000  1.00000000  0.11379000  1
  O  O82  1  0.69034000  0.00000000  0.22759000  1
  O  O83  1  0.19200900  0.00002400  0.34241900  1
  O  O84  1  0.74496800  0.00031600  0.46582300  1
