# generated using pymatgen
data_MgTiMnVZnCrFeCoCuNiSb20ClO54
_symmetry_space_group_name_H-M   'P 1'
_cell_length_a   6.63978300
_cell_length_b   9.56253700
_cell_length_c   29.07184900
_cell_angle_alpha   89.92239200
_cell_angle_beta   89.98530400
_cell_angle_gamma   89.99714500
_symmetry_Int_Tables_number   1
_chemical_formula_structural   MgTiMnVZnCrFeCoCuNiSb20ClO54
_chemical_formula_sum
'Mg1 Ti1 Mn1 V1 Zn1 Cr1 Fe1 Co1 Cu1 Ni1 Sb20 Cl1 O54'
_cell_volume   1845.86211220
_cell_formula_units_Z   1
loop_
 _symmetry_equiv_pos_site_id
 _symmetry_equiv_pos_as_xyz
  1  'x, y, z'
loop_
 _atom_site_type_symbol
 _atom_site_label
 _atom_site_symmetry_multiplicity
 _atom_site_fract_x
 _atom_site_fract_y
 _atom_site_fract_z
 _atom_site_occupancy
  Mg  Mg0  1  0.50000500  0.66614600  0.66076700  1
  Ti  Ti1  1  1.00000000  0.33232000  1.00000000  1
  Mn  Mn2  1  0.00000000  0.66768000  0.77241000  1
  V  V3  1  0.50000000  1.00000000  0.88621000  1
  Zn  Zn4  1  0.00018600  0.16931700  0.66011800  1
  Cr  Cr5  1  0.99742700  0.00549400  0.56129700  1
  Fe  Fe6  1  0.49803000  0.49853400  0.55517600  1
  Co  Co7  1  0.50000000  0.16768000  0.77241000  1
  Cu  Cu8  1  0.00000000  0.50000000  0.88621000  1
  Ni  Ni9  1  0.50000000  0.50000000  0.77241000  1
  Sb  Sb10  1  0.00000000  0.00000000  0.00000000  1
  Sb  Sb11  1  0.00000000  0.00000000  0.77241000  1
  Sb  Sb12  1  0.50014000  0.99824000  0.65889900  1
  Sb  Sb13  1  0.50000000  0.50000000  0.00000000  1
  Sb  Sb14  1  0.00001100  0.50160000  0.66053000  1
  Sb  Sb15  1  0.00000000  0.66768000  1.00000000  1
  Sb  Sb16  1  0.50000000  0.66768000  0.88621000  1
  Sb  Sb17  1  0.99967200  0.66779400  0.54261800  1
  Sb  Sb18  1  0.50000000  0.16768000  1.00000000  1
  Sb  Sb19  1  0.00000000  0.16768000  0.88621000  1
  Sb  Sb20  1  0.49849800  0.18146600  0.54399800  1
  Sb  Sb21  1  0.50000000  0.83232000  1.00000000  1
  Sb  Sb22  1  0.00000000  0.83232000  0.88621000  1
  Sb  Sb23  1  0.50000000  0.83232000  0.77241000  1
  Sb  Sb24  1  0.00001300  0.83144100  0.66069700  1
  Sb  Sb25  1  0.49790800  0.81690900  0.54420200  1
  Sb  Sb26  1  0.50000000  0.33232000  0.88621000  1
  Sb  Sb27  1  0.00000000  0.33232000  0.77241000  1
  Sb  Sb28  1  0.50011300  0.34539400  0.66364700  1
  Sb  Sb29  1  0.99906800  0.33538200  0.54261700  1
  Cl  Cl30  1  0.49084100  0.50610700  0.47834900  1
  O  O31  1  0.00000000  0.82836000  0.95506000  1
  O  O32  1  0.50000000  0.82836000  0.84126000  1
  O  O33  1  0.00019600  0.84474300  0.72934800  1
  O  O34  1  0.50044300  0.84521600  0.61271200  1
  O  O35  1  0.50000000  0.82836000  0.93115000  1
  O  O36  1  0.00000000  0.82836000  0.81736000  1
  O  O37  1  0.50021500  0.83997400  0.70268300  1
  O  O38  1  0.99895700  0.83002400  0.58967800  1
  O  O39  1  0.69747000  0.32836000  1.00000000  1
  O  O40  1  0.19747000  0.32836000  0.88621000  1
  O  O41  1  0.69747000  0.32836000  0.77241000  1
  O  O42  1  0.19326500  0.34011000  0.65808200  1
  O  O43  1  0.68535500  0.34435800  0.55424600  1
  O  O44  1  0.30253000  0.32836000  1.00000000  1
  O  O45  1  0.80253000  0.32836000  0.88621000  1
  O  O46  1  0.30253000  0.32836000  0.77241000  1
  O  O47  1  0.80690600  0.34017400  0.65821000  1
  O  O48  1  0.31140900  0.34422900  0.55512000  1
  O  O49  1  0.69747000  0.67164000  1.00000000  1
  O  O50  1  0.19747000  0.67164000  0.88621000  1
  O  O51  1  0.69747000  0.67164000  0.77241000  1
  O  O52  1  0.19051100  0.66889100  0.65914000  1
  O  O53  1  0.68794500  0.65541500  0.55552300  1
  O  O54  1  0.30253000  0.67164000  1.00000000  1
  O  O55  1  0.80253000  0.67164000  0.88621000  1
  O  O56  1  0.30253000  0.67164000  0.77241000  1
  O  O57  1  0.80952600  0.66892800  0.65913800  1
  O  O58  1  0.30942900  0.65542100  0.55730600  1
  O  O59  1  0.00000000  0.17164000  0.95506000  1
  O  O60  1  0.50000000  0.17164000  0.84126000  1
  O  O61  1  0.00021600  0.15531300  0.72933600  1
  O  O62  1  0.50027700  0.16366900  0.61463300  1
  O  O63  1  0.50000000  0.17164000  0.93115000  1
  O  O64  1  0.00000000  0.17164000  0.81736000  1
  O  O65  1  0.50002900  0.16436400  0.70174900  1
  O  O66  1  0.99806700  0.17601600  0.58812400  1
  O  O67  1  0.00000000  0.50000000  0.95668000  1
  O  O68  1  0.50000000  0.50000000  0.84289000  1
  O  O69  1  0.00049200  0.50002000  0.72830400  1
  O  O70  1  0.50108300  0.49878700  0.61706000  1
  O  O71  1  0.50000000  0.50000000  0.92952000  1
  O  O72  1  0.00000000  0.50000000  0.81573000  1
  O  O73  1  0.49997600  0.50151700  0.70540100  1
  O  O74  1  0.99796200  0.50186700  0.58802000  1
  O  O75  1  0.69034000  0.00000000  1.00000000  1
  O  O76  1  0.19034000  1.00000000  0.88621000  1
  O  O77  1  0.69034000  0.00000000  0.77241000  1
  O  O78  1  0.19401600  0.99250900  0.65524200  1
  O  O79  1  0.77846000  0.00032500  0.53250000  1
  O  O80  1  0.30966000  1.00000000  0.00000000  1
  O  O81  1  0.80966000  0.00000000  0.88621000  1
  O  O82  1  0.30966000  1.00000000  0.77241000  1
  O  O83  1  0.80618600  0.99267700  0.65526600  1
  O  O84  1  0.21238600  0.00009300  0.53129700  1
