# generated using pymatgen
data_MgTiMnVZnCrFeCoCuNiSb20ClO54
_symmetry_space_group_name_H-M   'P 1'
_cell_length_a   6.68175500
_cell_length_b   9.58466500
_cell_length_c   29.13654500
_cell_angle_alpha   89.93409700
_cell_angle_beta   89.97108300
_cell_angle_gamma   89.99881600
_symmetry_Int_Tables_number   1
_chemical_formula_structural   MgTiMnVZnCrFeCoCuNiSb20ClO54
_chemical_formula_sum
'Mg1 Ti1 Mn1 V1 Zn1 Cr1 Fe1 Co1 Cu1 Ni1 Sb20 Cl1 O54'
_cell_volume   1865.97231017
_cell_formula_units_Z   1
loop_
 _symmetry_equiv_pos_site_id
 _symmetry_equiv_pos_as_xyz
  1  'x, y, z'
loop_
 _atom_site_type_symbol
 _atom_site_label
 _atom_site_symmetry_multiplicity
 _atom_site_fract_x
 _atom_site_fract_y
 _atom_site_fract_z
 _atom_site_occupancy
  Mg  Mg0  1  0.50000000  0.00000000  0.88621000  1
  Ti  Ti1  1  1.00000000  0.66768000  0.77241000  1
  Mn  Mn2  1  1.00000000  0.00000000  0.77241000  1
  V  V3  1  0.00000000  0.00000000  0.00000000  1
  Zn  Zn4  1  1.00000000  0.66768000  0.00000000  1
  Cr  Cr5  1  0.49987000  0.33658600  0.65735200  1
  Fe  Fe6  1  0.49979600  0.50831700  0.55006700  1
  Co  Co7  1  0.50000000  0.83232000  0.77241000  1
  Cu  Cu8  1  0.49935200  0.81517800  0.54941900  1
  Ni  Ni9  1  0.00433600  0.64963300  0.55337300  1
  Sb  Sb10  1  0.49992900  0.00193900  0.65974200  1
  Sb  Sb11  1  0.99963600  0.99135400  0.54479400  1
  Sb  Sb12  1  0.50000000  0.50000000  1.00000000  1
  Sb  Sb13  1  1.00000000  0.50000000  0.88621000  1
  Sb  Sb14  1  0.50000000  0.50000000  0.77241000  1
  Sb  Sb15  1  0.99983800  0.49464200  0.65995200  1
  Sb  Sb16  1  0.50000000  0.66768000  0.88621000  1
  Sb  Sb17  1  0.49994900  0.66591800  0.66018900  1
  Sb  Sb18  1  0.50000000  0.16768000  1.00000000  1
  Sb  Sb19  1  1.00000000  0.16768000  0.88621000  1
  Sb  Sb20  1  0.50000000  0.16768000  0.77241000  1
  Sb  Sb21  1  0.99985200  0.17205800  0.65772000  1
  Sb  Sb22  1  0.50001400  0.16131900  0.54472500  1
  Sb  Sb23  1  0.50000000  0.83232000  1.00000000  1
  Sb  Sb24  1  1.00000000  0.83232000  0.88621000  1
  Sb  Sb25  1  0.99991200  0.83457100  0.66049400  1
  Sb  Sb26  1  0.00000000  0.33232000  0.00000000  1
  Sb  Sb27  1  0.50000000  0.33232000  0.88621000  1
  Sb  Sb28  1  1.00000000  0.33232000  0.77241000  1
  Sb  Sb29  1  0.00181700  0.36963300  0.53855500  1
  Cl  Cl30  1  0.49320000  0.48749900  0.47469900  1
  O  O31  1  1.00000000  0.82836000  0.95506000  1
  O  O32  1  0.50000000  0.82836000  0.84126000  1
  O  O33  1  0.00019600  0.84474300  0.72934800  1
  O  O34  1  0.50006200  0.83091600  0.61906400  1
  O  O35  1  0.50000000  0.82836000  0.93115000  1
  O  O36  1  1.00000000  0.82836000  0.81736000  1
  O  O37  1  0.49968000  0.83338000  0.70504900  1
  O  O38  1  0.99850500  0.83251400  0.59140000  1
  O  O39  1  0.69747000  0.32836000  0.00000000  1
  O  O40  1  0.19747000  0.32836000  0.88621000  1
  O  O41  1  0.69747000  0.32836000  0.77241000  1
  O  O42  1  0.19898200  0.33417800  0.66236200  1
  O  O43  1  0.68934900  0.36375600  0.55430500  1
  O  O44  1  0.30253000  0.32836000  1.00000000  1
  O  O45  1  0.80253000  0.32836000  0.88621000  1
  O  O46  1  0.30253000  0.32836000  0.77241000  1
  O  O47  1  0.80065900  0.33400900  0.66255700  1
  O  O48  1  0.30946500  0.36303700  0.55542100  1
  O  O49  1  0.69747000  0.67164000  0.00000000  1
  O  O50  1  0.19747000  0.67164000  0.88621000  1
  O  O51  1  0.69747000  0.67164000  0.77241000  1
  O  O52  1  0.19193800  0.66201600  0.66192900  1
  O  O53  1  0.69095800  0.65286100  0.54826500  1
  O  O54  1  0.30253000  0.67164000  1.00000000  1
  O  O55  1  0.80253000  0.67164000  0.88621000  1
  O  O56  1  0.30253000  0.67164000  0.77241000  1
  O  O57  1  0.80784100  0.66206700  0.66232100  1
  O  O58  1  0.30525900  0.65325900  0.54879600  1
  O  O59  1  1.00000000  0.17164000  0.95506000  1
  O  O60  1  0.50000000  0.17164000  0.84126000  1
  O  O61  1  0.00021600  0.15531300  0.72933600  1
  O  O62  1  0.50052100  0.17145200  0.61658200  1
  O  O63  1  0.50000000  0.17164000  0.93115000  1
  O  O64  1  1.00000000  0.17164000  0.81736000  1
  O  O65  1  0.49950000  0.17575600  0.70180300  1
  O  O66  1  0.99889800  0.17332100  0.58768700  1
  O  O67  1  1.00000000  0.50000000  0.95668000  1
  O  O68  1  0.50000000  0.50000000  0.84289000  1
  O  O69  1  0.00049200  0.50002000  0.72830400  1
  O  O70  1  0.50031500  0.50291100  0.61837100  1
  O  O71  1  0.50000000  0.50000000  0.92952000  1
  O  O72  1  1.00000000  0.50000000  0.81573000  1
  O  O73  1  0.49888300  0.49442500  0.70253900  1
  O  O74  1  0.99544300  0.49630600  0.59388000  1
  O  O75  1  0.69034000  1.00000000  0.00000000  1
  O  O76  1  0.19034000  0.00000000  0.88621000  1
  O  O77  1  0.69034000  1.00000000  0.77241000  1
  O  O78  1  0.19478200  0.00551600  0.65877200  1
  O  O79  1  0.68813800  0.98779200  0.55254000  1
  O  O80  1  0.30966000  0.00000000  1.00000000  1
  O  O81  1  0.80966000  1.00000000  0.88621000  1
  O  O82  1  0.30966000  0.00000000  0.77241000  1
  O  O83  1  0.80508500  0.00537300  0.65902700  1
  O  O84  1  0.31153800  0.98769900  0.55261700  1
