# generated using pymatgen
data_MgTiMnVZnCrFeCoCuNiSb20ClO54
_symmetry_space_group_name_H-M   'P 1'
_cell_length_a   6.67285600
_cell_length_b   9.49607100
_cell_length_c   29.80518300
_cell_angle_alpha   90.02231400
_cell_angle_beta   89.94466500
_cell_angle_gamma   89.94155500
_symmetry_Int_Tables_number   1
_chemical_formula_structural   MgTiMnVZnCrFeCoCuNiSb20ClO54
_chemical_formula_sum
'Mg1 Ti1 Mn1 V1 Zn1 Cr1 Fe1 Co1 Cu1 Ni1 Sb20 Cl1 O54'
_cell_volume   1888.63066581
_cell_formula_units_Z   1
loop_
 _symmetry_equiv_pos_site_id
 _symmetry_equiv_pos_as_xyz
  1  'x, y, z'
loop_
 _atom_site_type_symbol
 _atom_site_label
 _atom_site_symmetry_multiplicity
 _atom_site_fract_x
 _atom_site_fract_y
 _atom_site_fract_z
 _atom_site_occupancy
  Mg  Mg0  1  0.49872200  0.00186500  0.34031600  1
  Ti  Ti1  1  0.49803200  0.31772400  0.33837900  1
  Mn  Mn2  1  0.50000000  0.50000000  1.00000000  1
  V  V3  1  0.50000000  0.16768000  0.22759000  1
  Zn  Zn4  1  0.00000000  0.83232000  0.11379000  1
  Cr  Cr5  1  0.00000000  0.00000000  0.22759000  1
  Fe  Fe6  1  0.50249000  0.50238900  0.44565100  1
  Co  Co7  1  0.99832300  0.83076300  0.33403500  1
  Cu  Cu8  1  0.00043700  0.65318400  0.44506900  1
  Ni  Ni9  1  0.50000000  0.16768000  1.00000000  1
  Sb  Sb10  1  0.00000000  0.00000000  0.00000000  1
  Sb  Sb11  1  0.50000000  0.00000000  0.11379000  1
  Sb  Sb12  1  0.00328900  0.98899400  0.41769200  1
  Sb  Sb13  1  0.00000000  0.50000000  0.11379000  1
  Sb  Sb14  1  0.50000000  0.50000000  0.22759000  1
  Sb  Sb15  1  0.99940300  0.50266000  0.34042900  1
  Sb  Sb16  1  0.00000000  0.66768000  1.00000000  1
  Sb  Sb17  1  0.50000000  0.66768000  0.11379000  1
  Sb  Sb18  1  1.00000000  0.66768000  0.22759000  1
  Sb  Sb19  1  0.49875900  0.66456200  0.34008000  1
  Sb  Sb20  1  0.00000000  0.16768000  0.11379000  1
  Sb  Sb21  1  0.99798100  0.16824100  0.33655500  1
  Sb  Sb22  1  0.50528400  0.18288900  0.45141800  1
  Sb  Sb23  1  0.50000000  0.83232000  1.00000000  1
  Sb  Sb24  1  0.50000000  0.83232000  0.22759000  1
  Sb  Sb25  1  0.49695000  0.81187200  0.45222400  1
  Sb  Sb26  1  0.00000000  0.33232000  1.00000000  1
  Sb  Sb27  1  0.50000000  0.33232000  0.11379000  1
  Sb  Sb28  1  0.00000000  0.33232000  0.22759000  1
  Sb  Sb29  1  0.00239200  0.35518800  0.45571700  1
  Cl  Cl30  1  0.50880500  0.48354100  0.51945500  1
  O  O31  1  0.00000000  0.82836000  0.04494000  1
  O  O32  1  0.50000000  0.82836000  0.15874000  1
  O  O33  1  0.99980400  0.84474300  0.27065200  1
  O  O34  1  0.49725500  0.82498400  0.38330000  1
  O  O35  1  0.50000000  0.82836000  0.06885000  1
  O  O36  1  0.00000000  0.82836000  0.18264000  1
  O  O37  1  0.49801900  0.82657800  0.29561000  1
  O  O38  1  0.99795500  0.79823400  0.39744100  1
  O  O39  1  0.30253000  0.32836000  1.00000000  1
  O  O40  1  0.80253000  0.32836000  0.11379000  1
  O  O41  1  0.30253000  0.32836000  0.22759000  1
  O  O42  1  0.80442700  0.33351400  0.33372400  1
  O  O43  1  0.31382300  0.35428000  0.44274300  1
  O  O44  1  0.69747000  0.32836000  1.00000000  1
  O  O45  1  0.19747000  0.32836000  0.11379000  1
  O  O46  1  0.69747000  0.32836000  0.22759000  1
  O  O47  1  0.19298400  0.33291200  0.33286600  1
  O  O48  1  0.69178500  0.35293200  0.44097800  1
  O  O49  1  0.30253000  0.67164000  1.00000000  1
  O  O50  1  0.80253000  0.67164000  0.11379000  1
  O  O51  1  0.30253000  0.67164000  0.22759000  1
  O  O52  1  0.80213200  0.65885900  0.33261400  1
  O  O53  1  0.30250000  0.64372000  0.44846300  1
  O  O54  1  0.69747000  0.67164000  1.00000000  1
  O  O55  1  0.19747000  0.67164000  0.11379000  1
  O  O56  1  0.69747000  0.67164000  0.22759000  1
  O  O57  1  0.19555500  0.65942300  0.33259700  1
  O  O58  1  0.69807300  0.64215800  0.44667100  1
  O  O59  1  0.00000000  0.17164000  0.04494000  1
  O  O60  1  0.50000000  0.17164000  0.15874000  1
  O  O61  1  0.99978400  0.15531300  0.27066400  1
  O  O62  1  0.49805700  0.18120400  0.38208500  1
  O  O63  1  0.50000000  0.17164000  0.06885000  1
  O  O64  1  0.00000000  0.17164000  0.18264000  1
  O  O65  1  0.49943600  0.18239600  0.29212500  1
  O  O66  1  0.00573000  0.19854000  0.40557800  1
  O  O67  1  1.00000000  0.50000000  0.04332000  1
  O  O68  1  0.50000000  0.50000000  0.15711000  1
  O  O69  1  0.99950800  0.50002000  0.27169600  1
  O  O70  1  0.49731200  0.49449200  0.37925400  1
  O  O71  1  0.50000000  0.50000000  0.07048000  1
  O  O72  1  0.00000000  0.50000000  0.18427000  1
  O  O73  1  0.49934800  0.49814000  0.29572900  1
  O  O74  1  0.00630800  0.48831300  0.40435700  1
  O  O75  1  0.30966000  1.00000000  1.00000000  1
  O  O76  1  0.80966000  0.00000000  0.11379000  1
  O  O77  1  0.30966000  1.00000000  0.22759000  1
  O  O78  1  0.81059300  0.01184100  0.34990000  1
  O  O79  1  0.25332700  0.99344200  0.45064000  1
  O  O80  1  0.69034000  0.00000000  1.00000000  1
  O  O81  1  0.19034000  1.00000000  0.11379000  1
  O  O82  1  0.69034000  0.00000000  0.22759000  1
  O  O83  1  0.18584000  0.01125800  0.35043300  1
  O  O84  1  0.75472600  0.00592300  0.45087200  1
