# generated using pymatgen
data_MgTiMnVZnCrFeCoCuNiSb20ClO54
_symmetry_space_group_name_H-M   'P 1'
_cell_length_a   6.62887800
_cell_length_b   9.65421000
_cell_length_c   28.76407500
_cell_angle_alpha   89.90845100
_cell_angle_beta   89.93325500
_cell_angle_gamma   89.94677400
_symmetry_Int_Tables_number   1
_chemical_formula_structural   MgTiMnVZnCrFeCoCuNiSb20ClO54
_chemical_formula_sum
'Mg1 Ti1 Mn1 V1 Zn1 Cr1 Fe1 Co1 Cu1 Ni1 Sb20 Cl1 O54'
_cell_volume   1840.79804484
_cell_formula_units_Z   1
loop_
 _symmetry_equiv_pos_site_id
 _symmetry_equiv_pos_as_xyz
  1  'x, y, z'
loop_
 _atom_site_type_symbol
 _atom_site_label
 _atom_site_symmetry_multiplicity
 _atom_site_fract_x
 _atom_site_fract_y
 _atom_site_fract_z
 _atom_site_occupancy
  Mg  Mg0  1  0.00000000  0.16768000  0.11379000  1
  Ti  Ti1  1  0.50000000  0.16768000  0.00000000  1
  Mn  Mn2  1  0.00072300  0.01838500  0.45853600  1
  V  V3  1  0.50000000  0.50000000  0.00000000  1
  Zn  Zn4  1  0.49683600  0.19567200  0.46031200  1
  Cr  Cr5  1  1.00000000  0.50000000  0.11379000  1
  Fe  Fe6  1  0.49462400  0.47391300  0.47231000  1
  Co  Co7  1  0.50000000  1.00000000  0.11379000  1
  Cu  Cu8  1  0.00000000  0.33232000  0.00000000  1
  Ni  Ni9  1  0.99255300  0.34369800  0.45964900  1
  Sb  Sb10  1  0.00000000  0.00000000  0.00000000  1
  Sb  Sb11  1  0.00000000  0.00000000  0.22759000  1
  Sb  Sb12  1  0.49979200  0.99718400  0.34558200  1
  Sb  Sb13  1  0.50000000  0.50000000  0.22759000  1
  Sb  Sb14  1  0.99494000  0.49447300  0.34426500  1
  Sb  Sb15  1  0.50000000  0.33232000  0.11379000  1
  Sb  Sb16  1  0.00000000  0.33232000  0.22759000  1
  Sb  Sb17  1  0.49747000  0.32972200  0.34367200  1
  Sb  Sb18  1  0.50000000  0.83232000  0.00000000  1
  Sb  Sb19  1  1.00000000  0.83232000  0.11379000  1
  Sb  Sb20  1  0.50000000  0.83232000  0.22759000  1
  Sb  Sb21  1  0.99631500  0.80860900  0.35195700  1
  Sb  Sb22  1  0.50153700  0.88134900  0.47536400  1
  Sb  Sb23  1  0.50000000  0.16768000  0.22759000  1
  Sb  Sb24  1  0.99884600  0.15959900  0.34901300  1
  Sb  Sb25  1  1.00000000  0.66768000  0.00000000  1
  Sb  Sb26  1  0.50000000  0.66768000  0.11379000  1
  Sb  Sb27  1  1.00000000  0.66768000  0.22759000  1
  Sb  Sb28  1  0.49740300  0.65434800  0.38751800  1
  Sb  Sb29  1  0.99776300  0.63270700  0.46718600  1
  Cl  Cl30  1  0.50686900  0.57396300  0.54225600  1
  O  O31  1  0.00000000  0.17164000  0.04494000  1
  O  O32  1  0.50000000  0.17164000  0.15874000  1
  O  O33  1  0.00019600  0.15525700  0.27065200  1
  O  O34  1  0.49852400  0.16705400  0.38595300  1
  O  O35  1  0.50000000  0.17164000  0.06885000  1
  O  O36  1  0.00000000  0.17164000  0.18264000  1
  O  O37  1  0.49571900  0.16572700  0.29760600  1
  O  O38  1  0.99296900  0.17622900  0.41653300  1
  O  O39  1  0.69747000  0.67164000  0.00000000  1
  O  O40  1  0.19747000  0.67164000  0.11379000  1
  O  O41  1  0.69747000  0.67164000  0.22759000  1
  O  O42  1  0.19420000  0.64420200  0.33865200  1
  O  O43  1  0.68886600  0.64280000  0.44581300  1
  O  O44  1  0.30253000  0.67164000  0.00000000  1
  O  O45  1  0.80253000  0.67164000  0.11379000  1
  O  O46  1  0.30253000  0.67164000  0.22759000  1
  O  O47  1  0.79656800  0.64437600  0.33786400  1
  O  O48  1  0.30949600  0.63785500  0.44702100  1
  O  O49  1  0.69747000  0.32836000  0.00000000  1
  O  O50  1  0.19747000  0.32836000  0.11379000  1
  O  O51  1  0.69747000  0.32836000  0.22759000  1
  O  O52  1  0.18614500  0.32517000  0.33907200  1
  O  O53  1  0.70903000  0.34574400  0.47546900  1
  O  O54  1  0.30253000  0.32836000  0.00000000  1
  O  O55  1  0.80253000  0.32836000  0.11379000  1
  O  O56  1  0.30253000  0.32836000  0.22759000  1
  O  O57  1  0.80902400  0.32403000  0.33738700  1
  O  O58  1  0.28100800  0.34542300  0.47378500  1
  O  O59  1  1.00000000  0.82836000  0.04494000  1
  O  O60  1  0.50000000  0.82836000  0.15874000  1
  O  O61  1  0.00021600  0.84468700  0.27066400  1
  O  O62  1  0.51387500  0.88477600  0.40278300  1
  O  O63  1  0.50000000  0.82836000  0.06885000  1
  O  O64  1  1.00000000  0.82836000  0.18264000  1
  O  O65  1  0.50061000  0.84776500  0.29825000  1
  O  O66  1  0.00932900  0.83039200  0.44375200  1
  O  O67  1  1.00000000  0.50000000  0.04332000  1
  O  O68  1  0.50000000  0.50000000  0.15711000  1
  O  O69  1  0.00049200  0.49998000  0.27169600  1
  O  O70  1  0.50598700  0.44221800  0.39803800  1
  O  O71  1  0.50000000  0.50000000  0.07048000  1
  O  O72  1  1.00000000  0.50000000  0.18427000  1
  O  O73  1  0.49538500  0.47577800  0.29774000  1
  O  O74  1  0.99665800  0.48770900  0.41153100  1
  O  O75  1  0.69034000  0.00000000  0.00000000  1
  O  O76  1  0.19034000  1.00000000  0.11379000  1
  O  O77  1  0.69034000  0.00000000  0.22759000  1
  O  O78  1  0.19945700  0.00840900  0.34052400  1
  O  O79  1  0.71653800  0.03205800  0.47244200  1
  O  O80  1  0.30966000  1.00000000  0.00000000  1
  O  O81  1  0.80966000  0.00000000  0.11379000  1
  O  O82  1  0.30966000  1.00000000  0.22759000  1
  O  O83  1  0.79810400  0.01150600  0.33794100  1
  O  O84  1  0.28669400  0.03305400  0.47158200  1
