# generated using pymatgen
data_MgTiMnVZnCrFeCoCuNiSb20ClO54
_symmetry_space_group_name_H-M   'P 1'
_cell_length_a   6.62126100
_cell_length_b   9.65040700
_cell_length_c   28.61432200
_cell_angle_alpha   90.19307400
_cell_angle_beta   89.96428600
_cell_angle_gamma   89.99946700
_symmetry_Int_Tables_number   1
_chemical_formula_structural   MgTiMnVZnCrFeCoCuNiSb20ClO54
_chemical_formula_sum
'Mg1 Ti1 Mn1 V1 Zn1 Cr1 Fe1 Co1 Cu1 Ni1 Sb20 Cl1 O54'
_cell_volume   1828.38330502
_cell_formula_units_Z   1
loop_
 _symmetry_equiv_pos_site_id
 _symmetry_equiv_pos_as_xyz
  1  'x, y, z'
loop_
 _atom_site_type_symbol
 _atom_site_label
 _atom_site_symmetry_multiplicity
 _atom_site_fract_x
 _atom_site_fract_y
 _atom_site_fract_z
 _atom_site_occupancy
  Mg  Mg0  1  0.00000000  0.33232000  0.77241000  1
  Ti  Ti1  1  0.00000000  0.00000000  0.00000000  1
  Mn  Mn2  1  0.00000000  0.66768000  0.77241000  1
  V  V3  1  0.00181500  0.50335500  0.66783300  1
  Zn  Zn4  1  0.50000000  0.83232000  1.00000000  1
  Cr  Cr5  1  0.00212100  0.35578400  0.55198800  1
  Fe  Fe6  1  0.50157500  0.49907600  0.54339300  1
  Co  Co7  1  0.50000000  0.33232000  0.88621000  1
  Cu  Cu8  1  0.00000000  0.00000000  0.77241000  1
  Ni  Ni9  1  0.00000000  0.33232000  0.00000000  1
  Sb  Sb10  1  0.50000000  1.00000000  0.88621000  1
  Sb  Sb11  1  0.50273200  0.00541900  0.64987800  1
  Sb  Sb12  1  0.00080300  0.00044200  0.56312900  1
  Sb  Sb13  1  0.50000000  0.50000000  1.00000000  1
  Sb  Sb14  1  0.00000000  0.50000000  0.88621000  1
  Sb  Sb15  1  0.50000000  0.50000000  0.77241000  1
  Sb  Sb16  1  0.50259600  0.33359300  0.65597400  1
  Sb  Sb17  1  0.00000000  0.83232000  0.88621000  1
  Sb  Sb18  1  0.50000000  0.83232000  0.77241000  1
  Sb  Sb19  1  0.00527700  0.81469800  0.66262900  1
  Sb  Sb20  1  0.50019700  0.81093000  0.52903800  1
  Sb  Sb21  1  0.50000000  0.16768000  1.00000000  1
  Sb  Sb22  1  0.00000000  0.16768000  0.88621000  1
  Sb  Sb23  1  0.50000000  0.16768000  0.77241000  1
  Sb  Sb24  1  0.00221300  0.17596600  0.66328800  1
  Sb  Sb25  1  0.50254600  0.19489200  0.52900200  1
  Sb  Sb26  1  0.00000000  0.66768000  0.00000000  1
  Sb  Sb27  1  0.50000000  0.66768000  0.88621000  1
  Sb  Sb28  1  0.50325800  0.66446000  0.64311300  1
  Sb  Sb29  1  0.00098600  0.63371000  0.53769300  1
  Cl  Cl30  1  0.49939100  0.54384900  0.46784900  1
  O  O31  1  0.00000000  0.17164000  0.95506000  1
  O  O32  1  0.50000000  0.17164000  0.84126000  1
  O  O33  1  0.99980400  0.15525700  0.72934800  1
  O  O34  1  0.50467500  0.17630100  0.60658000  1
  O  O35  1  0.50000000  0.17164000  0.93115000  1
  O  O36  1  1.00000000  0.17164000  0.81736000  1
  O  O37  1  0.50299000  0.16449200  0.69846300  1
  O  O38  1  0.00023800  0.19063800  0.59055000  1
  O  O39  1  0.30253000  0.67164000  1.00000000  1
  O  O40  1  0.80253000  0.67164000  0.88621000  1
  O  O41  1  0.30253000  0.67164000  0.77241000  1
  O  O42  1  0.81461200  0.64106500  0.66249600  1
  O  O43  1  0.31654000  0.65233500  0.55415500  1
  O  O44  1  0.69747000  0.67164000  1.00000000  1
  O  O45  1  0.19747000  0.67164000  0.88621000  1
  O  O46  1  0.69747000  0.67164000  0.77241000  1
  O  O47  1  0.19204400  0.63856900  0.66293400  1
  O  O48  1  0.68570000  0.65281300  0.55382300  1
  O  O49  1  0.30253000  0.32836000  1.00000000  1
  O  O50  1  0.80253000  0.32836000  0.88621000  1
  O  O51  1  0.30253000  0.32836000  0.77241000  1
  O  O52  1  0.80853900  0.33856500  0.65975300  1
  O  O53  1  0.29324500  0.35112000  0.53887500  1
  O  O54  1  0.69747000  0.32836000  1.00000000  1
  O  O55  1  0.19747000  0.32836000  0.88621000  1
  O  O56  1  0.69747000  0.32836000  0.77241000  1
  O  O57  1  0.19605100  0.33816400  0.65991500  1
  O  O58  1  0.71216700  0.35156900  0.53778800  1
  O  O59  1  0.00000000  0.82836000  0.95506000  1
  O  O60  1  0.50000000  0.82836000  0.84126000  1
  O  O61  1  0.99978400  0.84468700  0.72933600  1
  O  O62  1  0.50025200  0.87075200  0.59846500  1
  O  O63  1  0.50000000  0.82836000  0.93115000  1
  O  O64  1  0.00000000  0.82836000  0.81736000  1
  O  O65  1  0.49943700  0.85042500  0.69702100  1
  O  O66  1  0.00023600  0.80358500  0.58132600  1
  O  O67  1  1.00000000  0.50000000  0.95668000  1
  O  O68  1  0.50000000  0.50000000  0.84289000  1
  O  O69  1  0.99950800  0.49998000  0.72830400  1
  O  O70  1  0.50391400  0.47536100  0.60781300  1
  O  O71  1  0.50000000  0.50000000  0.92952000  1
  O  O72  1  0.00000000  0.50000000  0.81573000  1
  O  O73  1  0.50227200  0.49601800  0.70032600  1
  O  O74  1  0.00071600  0.50282200  0.59351700  1
  O  O75  1  0.30966000  0.00000000  1.00000000  1
  O  O76  1  0.80966000  1.00000000  0.88621000  1
  O  O77  1  0.30966000  0.00000000  0.77241000  1
  O  O78  1  0.80891500  0.01276700  0.64633900  1
  O  O79  1  0.25137900  0.01057100  0.53009000  1
  O  O80  1  0.69034000  1.00000000  1.00000000  1
  O  O81  1  0.19034000  0.00000000  0.88621000  1
  O  O82  1  0.69034000  1.00000000  0.77241000  1
  O  O83  1  0.19741500  0.01578700  0.64632200  1
  O  O84  1  0.75069400  0.01038400  0.52993300  1
