# generated using pymatgen
data_MgTiMnVZnCrFeCoCuNiSb20ClO54
_symmetry_space_group_name_H-M   'P 1'
_cell_length_a   6.68413500
_cell_length_b   9.51861100
_cell_length_c   29.63499400
_cell_angle_alpha   90.05125300
_cell_angle_beta   89.97711800
_cell_angle_gamma   89.99738000
_symmetry_Int_Tables_number   1
_chemical_formula_structural   MgTiMnVZnCrFeCoCuNiSb20ClO54
_chemical_formula_sum
'Mg1 Ti1 Mn1 V1 Zn1 Cr1 Fe1 Co1 Cu1 Ni1 Sb20 Cl1 O54'
_cell_volume   1885.48649607
_cell_formula_units_Z   1
loop_
 _symmetry_equiv_pos_site_id
 _symmetry_equiv_pos_as_xyz
  1  'x, y, z'
loop_
 _atom_site_type_symbol
 _atom_site_label
 _atom_site_symmetry_multiplicity
 _atom_site_fract_x
 _atom_site_fract_y
 _atom_site_fract_z
 _atom_site_occupancy
  Mg  Mg0  1  0.00038000  0.15925300  0.65918700  1
  Ti  Ti1  1  0.50000000  0.50000000  0.77241000  1
  Mn  Mn2  1  0.50000000  1.00000000  0.88621000  1
  V  V3  1  0.50064200  0.66679500  0.66492800  1
  Zn  Zn4  1  0.99731700  0.99370900  0.57184400  1
  Cr  Cr5  1  0.00000000  0.83232000  0.88621000  1
  Fe  Fe6  1  0.49736600  0.49604200  0.55283500  1
  Co  Co7  1  0.50000000  0.83232000  0.77241000  1
  Cu  Cu8  1  0.49759200  0.16574500  0.55267300  1
  Ni  Ni9  1  0.00005900  0.83404400  0.66262800  1
  Sb  Sb10  1  0.00000000  0.00000000  0.00000000  1
  Sb  Sb11  1  0.00000000  1.00000000  0.77241000  1
  Sb  Sb12  1  0.50028600  0.99457300  0.66350700  1
  Sb  Sb13  1  0.50000000  0.50000000  1.00000000  1
  Sb  Sb14  1  1.00000000  0.50000000  0.88621000  1
  Sb  Sb15  1  0.00026600  0.50596900  0.65850300  1
  Sb  Sb16  1  0.00000000  0.66768000  1.00000000  1
  Sb  Sb17  1  0.50000000  0.66768000  0.88621000  1
  Sb  Sb18  1  0.00000000  0.66768000  0.77241000  1
  Sb  Sb19  1  0.99874800  0.67493200  0.54639500  1
  Sb  Sb20  1  0.50000000  0.16768000  1.00000000  1
  Sb  Sb21  1  0.00000000  0.16768000  0.88621000  1
  Sb  Sb22  1  0.50000000  0.16768000  0.77241000  1
  Sb  Sb23  1  0.50000000  0.83232000  1.00000000  1
  Sb  Sb24  1  0.49775400  0.83258800  0.55578600  1
  Sb  Sb25  1  0.00000000  0.33232000  1.00000000  1
  Sb  Sb26  1  0.50000000  0.33232000  0.88621000  1
  Sb  Sb27  1  0.00000000  0.33232000  0.77241000  1
  Sb  Sb28  1  0.50043300  0.34161700  0.65804200  1
  Sb  Sb29  1  0.99736200  0.32999500  0.54638100  1
  Cl  Cl30  1  0.49205600  0.49677400  0.47946200  1
  O  O31  1  0.00000000  0.82836000  0.95506000  1
  O  O32  1  0.50000000  0.82836000  0.84126000  1
  O  O33  1  0.00019600  0.84474300  0.72934800  1
  O  O34  1  0.50070600  0.82017100  0.62234700  1
  O  O35  1  0.50000000  0.82836000  0.93115000  1
  O  O36  1  0.00000000  0.82836000  0.81736000  1
  O  O37  1  0.49971100  0.82319300  0.70597200  1
  O  O38  1  0.99590600  0.80865100  0.59591400  1
  O  O39  1  0.69747000  0.32836000  1.00000000  1
  O  O40  1  0.19747000  0.32836000  0.88621000  1
  O  O41  1  0.69747000  0.32836000  0.77241000  1
  O  O42  1  0.19503200  0.34352600  0.66223300  1
  O  O43  1  0.67405400  0.34262400  0.55510700  1
  O  O44  1  0.30253000  0.32836000  1.00000000  1
  O  O45  1  0.80253000  0.32836000  0.88621000  1
  O  O46  1  0.30253000  0.32836000  0.77241000  1
  O  O47  1  0.80553500  0.34350000  0.66292800  1
  O  O48  1  0.32095400  0.34269700  0.55576300  1
  O  O49  1  0.69747000  0.67164000  1.00000000  1
  O  O50  1  0.19747000  0.67164000  0.88621000  1
  O  O51  1  0.69747000  0.67164000  0.77241000  1
  O  O52  1  0.20778600  0.65921900  0.66465100  1
  O  O53  1  0.67821700  0.65683000  0.55178300  1
  O  O54  1  0.30253000  0.67164000  1.00000000  1
  O  O55  1  0.80253000  0.67164000  0.88621000  1
  O  O56  1  0.30253000  0.67164000  0.77241000  1
  O  O57  1  0.79195800  0.65906300  0.66499100  1
  O  O58  1  0.31693900  0.65607600  0.55395700  1
  O  O59  1  0.00000000  0.17164000  0.95506000  1
  O  O60  1  0.50000000  0.17164000  0.84126000  1
  O  O61  1  0.00021600  0.15531300  0.72933600  1
  O  O62  1  0.50009500  0.16664100  0.62196000  1
  O  O63  1  0.50000000  0.17164000  0.93115000  1
  O  O64  1  0.00000000  0.17164000  0.81736000  1
  O  O65  1  0.49961900  0.17644700  0.70582100  1
  O  O66  1  0.99788500  0.18258200  0.59089300  1
  O  O67  1  0.00000000  0.50000000  0.95668000  1
  O  O68  1  0.50000000  0.50000000  0.84289000  1
  O  O69  1  0.00049200  0.50002000  0.72830400  1
  O  O70  1  0.50160500  0.51325200  0.61999400  1
  O  O71  1  0.50000000  0.50000000  0.92952000  1
  O  O72  1  0.00000000  0.50000000  0.81573000  1
  O  O73  1  0.49932100  0.49690900  0.70794500  1
  O  O74  1  0.99629100  0.50414000  0.58980700  1
  O  O75  1  0.69034000  0.00000000  0.00000000  1
  O  O76  1  0.19034000  1.00000000  0.88621000  1
  O  O77  1  0.69034000  1.00000000  0.77241000  1
  O  O78  1  0.20421200  0.99530400  0.65981900  1
  O  O79  1  0.69525400  0.98595700  0.54769100  1
  O  O80  1  0.30966000  0.00000000  0.00000000  1
  O  O81  1  0.80966000  1.00000000  0.88621000  1
  O  O82  1  0.30966000  1.00000000  0.77241000  1
  O  O83  1  0.79618900  0.99551400  0.66019000  1
  O  O84  1  0.29898700  0.98429300  0.54714200  1
