# generated using pymatgen
data_MgTiMnVZnCrFeCoCuNiSb20ClO54
_symmetry_space_group_name_H-M   'P 1'
_cell_length_a   6.69622200
_cell_length_b   9.53521800
_cell_length_c   28.99756900
_cell_angle_alpha   90.18155800
_cell_angle_beta   89.97969800
_cell_angle_gamma   89.99597200
_symmetry_Int_Tables_number   1
_chemical_formula_structural   MgTiMnVZnCrFeCoCuNiSb20ClO54
_chemical_formula_sum
'Mg1 Ti1 Mn1 V1 Zn1 Cr1 Fe1 Co1 Cu1 Ni1 Sb20 Cl1 O54'
_cell_volume   1851.48352410
_cell_formula_units_Z   1
loop_
 _symmetry_equiv_pos_site_id
 _symmetry_equiv_pos_as_xyz
  1  'x, y, z'
loop_
 _atom_site_type_symbol
 _atom_site_label
 _atom_site_symmetry_multiplicity
 _atom_site_fract_x
 _atom_site_fract_y
 _atom_site_fract_z
 _atom_site_occupancy
  Mg  Mg0  1  0.00068100  0.66441500  0.43813900  1
  Ti  Ti1  1  0.50000000  0.00000000  0.11379000  1
  Mn  Mn2  1  0.50000000  0.50000000  0.22759000  1
  V  V3  1  0.50000000  0.50000000  1.00000000  1
  Zn  Zn4  1  1.00000000  0.00000000  0.22759000  1
  Cr  Cr5  1  0.99983000  0.49187800  0.34084500  1
  Fe  Fe6  1  0.50090300  0.49894500  0.44821100  1
  Co  Co7  1  0.50000000  0.33232000  0.11379000  1
  Cu  Cu8  1  0.50043000  0.33787000  0.34342200  1
  Ni  Ni9  1  1.00000000  0.66768000  0.00000000  1
  Sb  Sb10  1  0.00000000  0.00000000  0.00000000  1
  Sb  Sb11  1  0.50006700  0.01089100  0.34271300  1
  Sb  Sb12  1  0.99977800  0.00221800  0.45896400  1
  Sb  Sb13  1  1.00000000  0.50000000  0.11379000  1
  Sb  Sb14  1  0.50000000  0.66768000  0.11379000  1
  Sb  Sb15  1  1.00000000  0.66768000  0.22759000  1
  Sb  Sb16  1  0.49993800  0.65214400  0.33852200  1
  Sb  Sb17  1  0.50000000  0.16768000  0.00000000  1
  Sb  Sb18  1  1.00000000  0.16768000  0.11379000  1
  Sb  Sb19  1  0.50000000  0.16768000  0.22759000  1
  Sb  Sb20  1  0.00075600  0.18311900  0.33880300  1
  Sb  Sb21  1  0.49961700  0.19267000  0.46175800  1
  Sb  Sb22  1  0.50000000  0.83232000  0.00000000  1
  Sb  Sb23  1  1.00000000  0.83232000  0.11379000  1
  Sb  Sb24  1  0.50000000  0.83232000  0.22759000  1
  Sb  Sb25  1  0.99981600  0.83305000  0.33955400  1
  Sb  Sb26  1  0.49986700  0.80549100  0.45277700  1
  Sb  Sb27  1  1.00000000  0.33232000  0.00000000  1
  Sb  Sb28  1  1.00000000  0.33232000  0.22759000  1
  Sb  Sb29  1  0.99992400  0.34560100  0.45449400  1
  Cl  Cl30  1  0.50378200  0.46186800  0.52438900  1
  O  O31  1  1.00000000  0.82836000  0.04494000  1
  O  O32  1  0.50000000  0.82836000  0.15874000  1
  O  O33  1  0.99980400  0.84474300  0.27065200  1
  O  O34  1  0.49985000  0.82967700  0.38374500  1
  O  O35  1  0.50000000  0.82836000  0.06885000  1
  O  O36  1  1.00000000  0.82836000  0.18264000  1
  O  O37  1  0.50005100  0.83410500  0.29813000  1
  O  O38  1  0.00133400  0.84933600  0.40999400  1
  O  O39  1  0.30253000  0.32836000  0.00000000  1
  O  O40  1  0.80253000  0.32836000  0.11379000  1
  O  O41  1  0.30253000  0.32836000  0.22759000  1
  O  O42  1  0.80651000  0.33907600  0.33873400  1
  O  O43  1  0.31163000  0.34567800  0.44216700  1
  O  O44  1  0.69747000  0.32836000  0.00000000  1
  O  O45  1  0.19747000  0.32836000  0.11379000  1
  O  O46  1  0.69747000  0.32836000  0.22759000  1
  O  O47  1  0.19380000  0.33985000  0.33851300  1
  O  O48  1  0.68897400  0.34426300  0.44191800  1
  O  O49  1  0.30253000  0.67164000  0.00000000  1
  O  O50  1  0.80253000  0.67164000  0.11379000  1
  O  O51  1  0.30253000  0.67164000  0.22759000  1
  O  O52  1  0.80999100  0.66742800  0.34142200  1
  O  O53  1  0.30635500  0.64715900  0.45398200  1
  O  O54  1  0.69747000  0.67164000  0.00000000  1
  O  O55  1  0.19747000  0.67164000  0.11379000  1
  O  O56  1  0.69747000  0.67164000  0.22759000  1
  O  O57  1  0.18968300  0.66718700  0.34135600  1
  O  O58  1  0.69494100  0.64784400  0.45389200  1
  O  O59  1  1.00000000  0.17164000  0.04494000  1
  O  O60  1  0.50000000  0.17164000  0.15874000  1
  O  O61  1  0.99978400  0.15531300  0.27066400  1
  O  O62  1  0.49841200  0.14431300  0.39310600  1
  O  O63  1  0.50000000  0.17164000  0.06885000  1
  O  O64  1  1.00000000  0.17164000  0.18264000  1
  O  O65  1  0.49985100  0.16787500  0.29761900  1
  O  O66  1  0.00075200  0.16734400  0.41096800  1
  O  O67  1  0.00000000  0.50000000  0.04332000  1
  O  O68  1  0.50000000  0.50000000  0.15711000  1
  O  O69  1  0.99950800  0.50002000  0.27169600  1
  O  O70  1  0.50143600  0.50451300  0.38510000  1
  O  O71  1  0.50000000  0.50000000  0.07048000  1
  O  O72  1  1.00000000  0.50000000  0.18427000  1
  O  O73  1  0.50104500  0.50299300  0.29188800  1
  O  O74  1  0.00081300  0.48982900  0.40710100  1
  O  O75  1  0.30966000  1.00000000  0.00000000  1
  O  O76  1  0.80966000  0.00000000  0.11379000  1
  O  O77  1  0.30966000  1.00000000  0.22759000  1
  O  O78  1  0.80896000  0.00396700  0.34128500  1
  O  O79  1  0.29520800  0.94623900  0.46942100  1
  O  O80  1  0.69034000  0.00000000  0.00000000  1
  O  O81  1  0.19034000  1.00000000  0.11379000  1
  O  O82  1  0.69034000  0.00000000  0.22759000  1
  O  O83  1  0.19120600  0.00368700  0.34107200  1
  O  O84  1  0.70311300  0.94788400  0.46861500  1
