# generated using pymatgen
data_MgTiMnVZnCrFeCoCuNiSb20ClO54
_symmetry_space_group_name_H-M   'P 1'
_cell_length_a   6.72122400
_cell_length_b   9.75674600
_cell_length_c   29.40800900
_cell_angle_alpha   89.87247400
_cell_angle_beta   89.84005300
_cell_angle_gamma   90.68505800
_symmetry_Int_Tables_number   1
_chemical_formula_structural   MgTiMnVZnCrFeCoCuNiSb20ClO54
_chemical_formula_sum
'Mg1 Ti1 Mn1 V1 Zn1 Cr1 Fe1 Co1 Cu1 Ni1 Sb20 Cl1 O54'
_cell_volume   1928.34682334
_cell_formula_units_Z   1
loop_
 _symmetry_equiv_pos_site_id
 _symmetry_equiv_pos_as_xyz
  1  'x, y, z'
loop_
 _atom_site_type_symbol
 _atom_site_label
 _atom_site_symmetry_multiplicity
 _atom_site_fract_x
 _atom_site_fract_y
 _atom_site_fract_z
 _atom_site_occupancy
  Mg  Mg0  1  0.00000000  0.33232000  0.00000000  1
  Ti  Ti1  1  0.54566500  0.80995300  0.44892100  1
  Mn  Mn2  1  0.50000000  0.16768000  0.00000000  1
  V  V3  1  0.50000000  0.33232000  0.11379000  1
  Zn  Zn4  1  0.03384500  0.69647100  0.45205100  1
  Cr  Cr5  1  0.47157300  0.15377800  0.44719500  1
  Fe  Fe6  1  0.55100300  0.45935400  0.45305800  1
  Co  Co7  1  0.93991400  0.02529600  0.44492800  1
  Cu  Cu8  1  0.49598300  0.65835800  0.34560400  1
  Ni  Ni9  1  0.00000000  0.00000000  0.00000000  1
  Sb  Sb10  1  0.50000000  1.00000000  0.11379000  1
  Sb  Sb11  1  0.00000000  1.00000000  0.22759000  1
  Sb  Sb12  1  0.50450100  0.98562200  0.34067100  1
  Sb  Sb13  1  0.50000000  0.50000000  0.00000000  1
  Sb  Sb14  1  0.00000000  0.50000000  0.11379000  1
  Sb  Sb15  1  0.50000000  0.50000000  0.22759000  1
  Sb  Sb16  1  0.97181200  0.51452100  0.35341100  1
  Sb  Sb17  1  0.00000000  0.33232000  0.22759000  1
  Sb  Sb18  1  0.50067800  0.33338600  0.34440300  1
  Sb  Sb19  1  0.06983100  0.33573400  0.46080000  1
  Sb  Sb20  1  0.50000000  0.83232000  0.00000000  1
  Sb  Sb21  1  1.00000000  0.83232000  0.11379000  1
  Sb  Sb22  1  0.50000000  0.83232000  0.22759000  1
  Sb  Sb23  1  0.00389100  0.83345400  0.34655000  1
  Sb  Sb24  1  0.00000000  0.16768000  0.11379000  1
  Sb  Sb25  1  0.50000000  0.16768000  0.22759000  1
  Sb  Sb26  1  0.99688100  0.17154500  0.34284500  1
  Sb  Sb27  1  1.00000000  0.66768000  0.00000000  1
  Sb  Sb28  1  0.50000000  0.66768000  0.11379000  1
  Sb  Sb29  1  1.00000000  0.66768000  0.22759000  1
  Cl  Cl30  1  0.32334500  0.48704000  0.51300400  1
  O  O31  1  1.00000000  0.17164000  0.04494000  1
  O  O32  1  0.50000000  0.17164000  0.15874000  1
  O  O33  1  0.00019600  0.15525700  0.27065200  1
  O  O34  1  0.52124500  0.14913800  0.38438600  1
  O  O35  1  0.50000000  0.17164000  0.06885000  1
  O  O36  1  1.00000000  0.17164000  0.18264000  1
  O  O37  1  0.48695400  0.15526800  0.29678300  1
  O  O38  1  0.95922900  0.19456700  0.40881900  1
  O  O39  1  0.69747000  0.67164000  0.00000000  1
  O  O40  1  0.19747000  0.67164000  0.11379000  1
  O  O41  1  0.69747000  0.67164000  0.22759000  1
  O  O42  1  0.19157000  0.67565500  0.34801600  1
  O  O43  1  0.71236900  0.66847800  0.46177000  1
  O  O44  1  0.30253000  0.67164000  0.00000000  1
  O  O45  1  0.80253000  0.67164000  0.11379000  1
  O  O46  1  0.30253000  0.67164000  0.22759000  1
  O  O47  1  0.79979900  0.68674500  0.34041800  1
  O  O48  1  0.30540000  0.75726800  0.46579900  1
  O  O49  1  0.69747000  0.32836000  0.00000000  1
  O  O50  1  0.19747000  0.32836000  0.11379000  1
  O  O51  1  0.69747000  0.32836000  0.22759000  1
  O  O52  1  0.20297300  0.31847200  0.33674500  1
  O  O53  1  0.63079300  0.27226100  0.47240000  1
  O  O54  1  0.30253000  0.32836000  0.00000000  1
  O  O55  1  0.80253000  0.32836000  0.11379000  1
  O  O56  1  0.30253000  0.32836000  0.22759000  1
  O  O57  1  0.78688600  0.30226900  0.32798500  1
  O  O58  1  0.32953000  0.31897100  0.42870700  1
  O  O59  1  0.00000000  0.82836000  0.04494000  1
  O  O60  1  0.50000000  0.82836000  0.15874000  1
  O  O61  1  0.00021600  0.84468700  0.27066400  1
  O  O62  1  0.50956900  0.83441100  0.38456900  1
  O  O63  1  0.50000000  0.82836000  0.06885000  1
  O  O64  1  0.00000000  0.82836000  0.18264000  1
  O  O65  1  0.48792700  0.83508300  0.29473100  1
  O  O66  1  0.98000300  0.85993700  0.41244900  1
  O  O67  1  0.00000000  0.50000000  0.04332000  1
  O  O68  1  0.50000000  0.50000000  0.15711000  1
  O  O69  1  0.00049200  0.49998000  0.27169600  1
  O  O70  1  0.59516100  0.47631200  0.38830200  1
  O  O71  1  0.50000000  0.50000000  0.07048000  1
  O  O72  1  0.00000000  0.50000000  0.18427000  1
  O  O73  1  0.49430500  0.49296900  0.30063900  1
  O  O74  1  0.02654400  0.50963800  0.42613700  1
  O  O75  1  0.69034000  1.00000000  0.00000000  1
  O  O76  1  0.19034000  1.00000000  0.11379000  1
  O  O77  1  0.69034000  1.00000000  0.22759000  1
  O  O78  1  0.19265700  0.00417000  0.34265200  1
  O  O79  1  0.65407800  0.99509400  0.45872900  1
  O  O80  1  0.30966000  0.00000000  0.00000000  1
  O  O81  1  0.80966000  1.00000000  0.11379000  1
  O  O82  1  0.30966000  1.00000000  0.22759000  1
  O  O83  1  0.81236500  0.99892300  0.33775900  1
  O  O84  1  0.25156400  0.07718800  0.46263900  1
