# generated using pymatgen
data_MgTiMnVZnCrFeCoCuNiSb20ClO54
_symmetry_space_group_name_H-M   'P 1'
_cell_length_a   6.55959400
_cell_length_b   9.64453000
_cell_length_c   28.98401100
_cell_angle_alpha   89.66969600
_cell_angle_beta   89.96564000
_cell_angle_gamma   89.98637600
_symmetry_Int_Tables_number   1
_chemical_formula_structural   MgTiMnVZnCrFeCoCuNiSb20ClO54
_chemical_formula_sum
'Mg1 Ti1 Mn1 V1 Zn1 Cr1 Fe1 Co1 Cu1 Ni1 Sb20 Cl1 O54'
_cell_volume   1833.61945147
_cell_formula_units_Z   1
loop_
 _symmetry_equiv_pos_site_id
 _symmetry_equiv_pos_as_xyz
  1  'x, y, z'
loop_
 _atom_site_type_symbol
 _atom_site_label
 _atom_site_symmetry_multiplicity
 _atom_site_fract_x
 _atom_site_fract_y
 _atom_site_fract_z
 _atom_site_occupancy
  Mg  Mg0  1  0.00000000  0.16768000  0.11379000  1
  Ti  Ti1  1  0.00000000  0.00000000  0.00000000  1
  Mn  Mn2  1  0.50000000  0.16768000  0.00000000  1
  V  V3  1  0.50000000  0.83232000  1.00000000  1
  Zn  Zn4  1  0.00000000  0.66768000  0.22759000  1
  Cr  Cr5  1  0.00009100  0.83248400  0.33825200  1
  Fe  Fe6  1  0.50015900  0.50711800  0.45596100  1
  Co  Co7  1  0.99992400  0.65894700  0.44985600  1
  Cu  Cu8  1  0.00000000  0.50000000  0.11379000  1
  Ni  Ni9  1  0.00000000  0.33232000  0.00000000  1
  Sb  Sb10  1  0.50000000  0.00000000  0.11379000  1
  Sb  Sb11  1  0.00000000  0.00000000  0.22759000  1
  Sb  Sb12  1  0.50000700  0.99352600  0.34869900  1
  Sb  Sb13  1  0.99907500  0.98549800  0.43844000  1
  Sb  Sb14  1  0.50000000  0.50000000  0.00000000  1
  Sb  Sb15  1  0.50000000  0.50000000  0.22759000  1
  Sb  Sb16  1  0.99926900  0.51007000  0.33892500  1
  Sb  Sb17  1  0.50000000  0.33232000  0.11379000  1
  Sb  Sb18  1  0.00000000  0.33232000  0.22759000  1
  Sb  Sb19  1  0.49989300  0.33826200  0.35725300  1
  Sb  Sb20  1  0.99985900  0.38121300  0.46417400  1
  Sb  Sb21  1  0.00000000  0.83232000  0.11379000  1
  Sb  Sb22  1  0.50000000  0.83232000  0.22759000  1
  Sb  Sb23  1  0.49931600  0.81050900  0.47073900  1
  Sb  Sb24  1  0.50000000  0.16768000  0.22759000  1
  Sb  Sb25  1  0.99998300  0.17357200  0.34671100  1
  Sb  Sb26  1  0.49766500  0.19590100  0.46807700  1
  Sb  Sb27  1  0.00000000  0.66768000  0.00000000  1
  Sb  Sb28  1  0.50000000  0.66768000  0.11379000  1
  Sb  Sb29  1  0.50002100  0.67130800  0.34334700  1
  Cl  Cl30  1  0.49670900  0.45268300  0.53023700  1
  O  O31  1  0.00000000  0.17164000  0.04494000  1
  O  O32  1  0.50000000  0.17164000  0.15874000  1
  O  O33  1  0.00019600  0.15525700  0.27065200  1
  O  O34  1  0.50029100  0.11371500  0.40314200  1
  O  O35  1  0.50000000  0.17164000  0.06885000  1
  O  O36  1  0.00000000  0.17164000  0.18264000  1
  O  O37  1  0.50011700  0.14625300  0.30004500  1
  O  O38  1  0.00346700  0.19596300  0.43286500  1
  O  O39  1  0.69747000  0.67164000  0.00000000  1
  O  O40  1  0.19747000  0.67164000  0.11379000  1
  O  O41  1  0.69747000  0.67164000  0.22759000  1
  O  O42  1  0.19313600  0.67341700  0.33669500  1
  O  O43  1  0.70829200  0.64437900  0.46110100  1
  O  O44  1  0.30253000  0.67164000  0.00000000  1
  O  O45  1  0.80253000  0.67164000  0.11379000  1
  O  O46  1  0.30253000  0.67164000  0.22759000  1
  O  O47  1  0.80703600  0.67388100  0.33631500  1
  O  O48  1  0.29180200  0.64479700  0.46045400  1
  O  O49  1  0.69747000  0.32836000  0.00000000  1
  O  O50  1  0.19747000  0.32836000  0.11379000  1
  O  O51  1  0.69747000  0.32836000  0.22759000  1
  O  O52  1  0.19254100  0.35060000  0.33504100  1
  O  O53  1  0.68587200  0.35448900  0.44550700  1
  O  O54  1  0.30253000  0.32836000  0.00000000  1
  O  O55  1  0.80253000  0.32836000  0.11379000  1
  O  O56  1  0.30253000  0.32836000  0.22759000  1
  O  O57  1  0.80674800  0.35047900  0.33491700  1
  O  O58  1  0.31430700  0.35670600  0.44480400  1
  O  O59  1  0.00000000  0.82836000  0.04494000  1
  O  O60  1  0.50000000  0.82836000  0.15874000  1
  O  O61  1  0.00021600  0.84468700  0.27066400  1
  O  O62  1  0.49996300  0.82347100  0.39187800  1
  O  O63  1  0.50000000  0.82836000  0.06885000  1
  O  O64  1  0.00000000  0.82836000  0.18264000  1
  O  O65  1  0.49981800  0.83635400  0.29945200  1
  O  O66  1  0.99913700  0.80531700  0.40503800  1
  O  O67  1  0.00000000  0.50000000  0.04332000  1
  O  O68  1  0.50000000  0.50000000  0.15711000  1
  O  O69  1  0.00049200  0.49998000  0.27169600  1
  O  O70  1  0.50489000  0.52867900  0.39084800  1
  O  O71  1  0.50000000  0.50000000  0.07048000  1
  O  O72  1  0.00000000  0.50000000  0.18427000  1
  O  O73  1  0.49992900  0.50662300  0.30122600  1
  O  O74  1  0.99931700  0.50108100  0.40643600  1
  O  O75  1  0.69034000  1.00000000  0.00000000  1
  O  O76  1  0.19034000  0.00000000  0.11379000  1
  O  O77  1  0.69034000  1.00000000  0.22759000  1
  O  O78  1  0.19841600  0.98095100  0.34573800  1
  O  O79  1  0.74477100  0.96236000  0.47261100  1
  O  O80  1  0.30966000  0.00000000  1.00000000  1
  O  O81  1  0.80966000  1.00000000  0.11379000  1
  O  O82  1  0.30966000  0.00000000  0.22759000  1
  O  O83  1  0.80174500  0.98082400  0.34566400  1
  O  O84  1  0.25277200  0.96102900  0.47266900  1
