# generated using pymatgen
data_MgTiMnVZnCrFeCoCuNiSb20ClO54
_symmetry_space_group_name_H-M   'P 1'
_cell_length_a   6.68516200
_cell_length_b   9.50495600
_cell_length_c   28.77706600
_cell_angle_alpha   89.93640400
_cell_angle_beta   89.98863600
_cell_angle_gamma   89.99130000
_symmetry_Int_Tables_number   1
_chemical_formula_structural   MgTiMnVZnCrFeCoCuNiSb20ClO54
_chemical_formula_sum
'Mg1 Ti1 Mn1 V1 Zn1 Cr1 Fe1 Co1 Cu1 Ni1 Sb20 Cl1 O54'
_cell_volume   1828.55605556
_cell_formula_units_Z   1
loop_
 _symmetry_equiv_pos_site_id
 _symmetry_equiv_pos_as_xyz
  1  'x, y, z'
loop_
 _atom_site_type_symbol
 _atom_site_label
 _atom_site_symmetry_multiplicity
 _atom_site_fract_x
 _atom_site_fract_y
 _atom_site_fract_z
 _atom_site_occupancy
  Mg  Mg0  1  0.50000000  0.33232000  0.11379000  1
  Ti  Ti1  1  0.00000000  0.83232000  0.11379000  1
  Mn  Mn2  1  0.99765800  0.82627600  0.33909100  1
  V  V3  1  0.48201400  0.99953900  0.33902400  1
  Zn  Zn4  1  0.50000000  0.66768000  0.11379000  1
  Cr  Cr5  1  0.00000000  0.16768000  0.11379000  1
  Fe  Fe6  1  0.50080200  0.50587200  0.44677900  1
  Co  Co7  1  0.00026500  0.50543400  0.34089900  1
  Cu  Cu8  1  0.50000000  0.83232000  0.22759000  1
  Ni  Ni9  1  0.00044400  0.97109700  0.44805500  1
  Sb  Sb10  1  0.00000000  0.00000000  0.00000000  1
  Sb  Sb11  1  0.50000000  0.00000000  0.11379000  1
  Sb  Sb12  1  0.00000000  0.00000000  0.22759000  1
  Sb  Sb13  1  0.50000000  0.50000000  1.00000000  1
  Sb  Sb14  1  0.00000000  0.50000000  0.11379000  1
  Sb  Sb15  1  0.50000000  0.50000000  0.22759000  1
  Sb  Sb16  1  0.00000000  0.66768000  0.00000000  1
  Sb  Sb17  1  0.00000000  0.66768000  0.22759000  1
  Sb  Sb18  1  0.49943100  0.67929200  0.33572400  1
  Sb  Sb19  1  0.00007400  0.68229800  0.45479800  1
  Sb  Sb20  1  0.50000000  0.16768000  1.00000000  1
  Sb  Sb21  1  0.50000000  0.16768000  0.22759000  1
  Sb  Sb22  1  0.99487800  0.15955700  0.34496800  1
  Sb  Sb23  1  0.50252200  0.18174400  0.45991300  1
  Sb  Sb24  1  0.50000000  0.83232000  0.00000000  1
  Sb  Sb25  1  0.49958600  0.83287000  0.45096600  1
  Sb  Sb26  1  0.00000000  0.33232000  1.00000000  1
  Sb  Sb27  1  0.00000000  0.33232000  0.22759000  1
  Sb  Sb28  1  0.49949100  0.32695900  0.35084200  1
  Sb  Sb29  1  0.00055500  0.34375600  0.45284900  1
  Cl  Cl30  1  0.50992100  0.46723900  0.52204900  1
  O  O31  1  0.00000000  0.82836000  0.04494000  1
  O  O32  1  0.50000000  0.82836000  0.15874000  1
  O  O33  1  0.99980400  0.84474300  0.27065200  1
  O  O34  1  0.49786600  0.84164000  0.38217800  1
  O  O35  1  0.50000000  0.82836000  0.06885000  1
  O  O36  1  0.00000000  0.82836000  0.18264000  1
  O  O37  1  0.50138500  0.85183900  0.29598300  1
  O  O38  1  0.00772100  0.82257800  0.40309200  1
  O  O39  1  0.30253000  0.32836000  1.00000000  1
  O  O40  1  0.80253000  0.32836000  0.11379000  1
  O  O41  1  0.30253000  0.32836000  0.22759000  1
  O  O42  1  0.80828000  0.32619700  0.33958700  1
  O  O43  1  0.31792300  0.34664500  0.43671200  1
  O  O44  1  0.69747000  0.32836000  1.00000000  1
  O  O45  1  0.19747000  0.32836000  0.11379000  1
  O  O46  1  0.69747000  0.32836000  0.22759000  1
  O  O47  1  0.18977400  0.32356700  0.33945000  1
  O  O48  1  0.68360100  0.34771100  0.43543400  1
  O  O49  1  0.30253000  0.67164000  0.00000000  1
  O  O50  1  0.80253000  0.67164000  0.11379000  1
  O  O51  1  0.30253000  0.67164000  0.22759000  1
  O  O52  1  0.80426700  0.67696200  0.33605100  1
  O  O53  1  0.31806000  0.65873700  0.45267700  1
  O  O54  1  0.69747000  0.67164000  0.00000000  1
  O  O55  1  0.19747000  0.67164000  0.11379000  1
  O  O56  1  0.69747000  0.67164000  0.22759000  1
  O  O57  1  0.19306200  0.67811400  0.33489800  1
  O  O58  1  0.68226400  0.65924600  0.45052600  1
  O  O59  1  0.00000000  0.17164000  0.04494000  1
  O  O60  1  0.50000000  0.17164000  0.15874000  1
  O  O61  1  0.99978400  0.15531300  0.27066400  1
  O  O62  1  0.50402600  0.13815400  0.38785200  1
  O  O63  1  0.50000000  0.17164000  0.06885000  1
  O  O64  1  0.00000000  0.17164000  0.18264000  1
  O  O65  1  0.50465400  0.16327900  0.29886400  1
  O  O66  1  0.00185400  0.16512500  0.41474200  1
  O  O67  1  0.00000000  0.50000000  0.04332000  1
  O  O68  1  0.50000000  0.50000000  0.15711000  1
  O  O69  1  0.99950800  0.50002000  0.27169600  1
  O  O70  1  0.49533200  0.52252100  0.38298200  1
  O  O71  1  0.50000000  0.50000000  0.07048000  1
  O  O72  1  0.00000000  0.50000000  0.18427000  1
  O  O73  1  0.49971000  0.49400900  0.29697600  1
  O  O74  1  0.00256400  0.51153000  0.40930700  1
  O  O75  1  0.30966000  0.00000000  0.00000000  1
  O  O76  1  0.80966000  0.00000000  0.11379000  1
  O  O77  1  0.30966000  0.00000000  0.22759000  1
  O  O78  1  0.81153400  0.99286600  0.34078900  1
  O  O79  1  0.28542000  0.97855400  0.45976200  1
  O  O80  1  0.69034000  0.00000000  0.00000000  1
  O  O81  1  0.19034000  0.00000000  0.11379000  1
  O  O82  1  0.69034000  0.00000000  0.22759000  1
  O  O83  1  0.20414500  0.99981300  0.34017300  1
  O  O84  1  0.71539700  0.97722500  0.45962200  1
