# generated using pymatgen
data_MgTiMnVZnCrFeCoCuNiSb20ClO54
_symmetry_space_group_name_H-M   'P 1'
_cell_length_a   6.68862200
_cell_length_b   9.41829400
_cell_length_c   28.58228900
_cell_angle_alpha   89.47425900
_cell_angle_beta   89.95452500
_cell_angle_gamma   89.95140000
_symmetry_Int_Tables_number   1
_chemical_formula_structural   MgTiMnVZnCrFeCoCuNiSb20ClO54
_chemical_formula_sum
'Mg1 Ti1 Mn1 V1 Zn1 Cr1 Fe1 Co1 Cu1 Ni1 Sb20 Cl1 O54'
_cell_volume   1800.47596586
_cell_formula_units_Z   1
loop_
 _symmetry_equiv_pos_site_id
 _symmetry_equiv_pos_as_xyz
  1  'x, y, z'
loop_
 _atom_site_type_symbol
 _atom_site_label
 _atom_site_symmetry_multiplicity
 _atom_site_fract_x
 _atom_site_fract_y
 _atom_site_fract_z
 _atom_site_occupancy
  Mg  Mg0  1  0.50000000  0.66768000  0.11379000  1
  Ti  Ti1  1  0.50000000  0.83232000  0.00000000  1
  Mn  Mn2  1  0.49955100  0.99362500  0.34040800  1
  V  V3  1  0.00000000  0.16768000  0.11379000  1
  Zn  Zn4  1  0.50000000  0.50000000  0.00000000  1
  Cr  Cr5  1  0.49889400  0.32598500  0.33851800  1
  Fe  Fe6  1  0.50114400  0.49098400  0.44986000  1
  Co  Co7  1  0.00000000  0.00000000  0.00000000  1
  Cu  Cu8  1  0.50000000  0.00000000  0.11379000  1
  Ni  Ni9  1  0.00000000  0.66768000  0.22759000  1
  Sb  Sb10  1  0.00000000  0.00000000  0.22759000  1
  Sb  Sb11  1  0.00169100  0.02188200  0.48128900  1
  Sb  Sb12  1  0.00000000  0.50000000  0.11379000  1
  Sb  Sb13  1  0.50000000  0.50000000  0.22759000  1
  Sb  Sb14  1  0.00052100  0.49275700  0.34115800  1
  Sb  Sb15  1  0.00000000  0.66768000  0.00000000  1
  Sb  Sb16  1  0.50062600  0.66038900  0.35162600  1
  Sb  Sb17  1  0.99926800  0.65982100  0.45465000  1
  Sb  Sb18  1  0.50000000  0.16768000  0.00000000  1
  Sb  Sb19  1  0.50000000  0.16768000  0.22759000  1
  Sb  Sb20  1  0.99955700  0.16317400  0.35231600  1
  Sb  Sb21  1  0.49963700  0.17281300  0.44860400  1
  Sb  Sb22  1  0.00000000  0.83232000  0.11379000  1
  Sb  Sb23  1  0.50000000  0.83232000  0.22759000  1
  Sb  Sb24  1  0.99994500  0.83523600  0.34164800  1
  Sb  Sb25  1  0.50506000  0.80825200  0.46096100  1
  Sb  Sb26  1  0.00000000  0.33232000  0.00000000  1
  Sb  Sb27  1  0.50000000  0.33232000  0.11379000  1
  Sb  Sb28  1  0.00000000  0.33232000  0.22759000  1
  Sb  Sb29  1  0.99975000  0.33414200  0.47618600  1
  Cl  Cl30  1  0.51798400  0.53855200  0.52558700  1
  O  O31  1  0.00000000  0.82836000  0.04494000  1
  O  O32  1  0.50000000  0.82836000  0.15874000  1
  O  O33  1  0.99980400  0.84474300  0.27065200  1
  O  O34  1  0.49777000  0.85706400  0.38818600  1
  O  O35  1  0.50000000  0.82836000  0.06885000  1
  O  O36  1  0.00000000  0.82836000  0.18264000  1
  O  O37  1  0.50027700  0.83865100  0.29938000  1
  O  O38  1  0.00035700  0.83119300  0.41139000  1
  O  O39  1  0.30253000  0.32836000  0.00000000  1
  O  O40  1  0.80253000  0.32836000  0.11379000  1
  O  O41  1  0.30253000  0.32836000  0.22759000  1
  O  O42  1  0.79823100  0.33444500  0.33904000  1
  O  O43  1  0.31428100  0.33877600  0.45975300  1
  O  O44  1  0.69747000  0.32836000  0.00000000  1
  O  O45  1  0.19747000  0.32836000  0.11379000  1
  O  O46  1  0.69747000  0.32836000  0.22759000  1
  O  O47  1  0.19959000  0.33233600  0.33722600  1
  O  O48  1  0.68850900  0.33836400  0.45648400  1
  O  O49  1  0.30253000  0.67164000  0.00000000  1
  O  O50  1  0.80253000  0.67164000  0.11379000  1
  O  O51  1  0.30253000  0.67164000  0.22759000  1
  O  O52  1  0.81243400  0.66432400  0.33754100  1
  O  O53  1  0.31421700  0.64811500  0.43899900  1
  O  O54  1  0.69747000  0.67164000  0.00000000  1
  O  O55  1  0.19747000  0.67164000  0.11379000  1
  O  O56  1  0.69747000  0.67164000  0.22759000  1
  O  O57  1  0.18834800  0.66431200  0.33762900  1
  O  O58  1  0.68453100  0.64534700  0.43483000  1
  O  O59  1  0.00000000  0.17164000  0.04494000  1
  O  O60  1  0.50000000  0.17164000  0.15874000  1
  O  O61  1  0.99978400  0.15531300  0.27066400  1
  O  O62  1  0.49460800  0.15977600  0.38056100  1
  O  O63  1  0.50000000  0.17164000  0.06885000  1
  O  O64  1  0.00000000  0.17164000  0.18264000  1
  O  O65  1  0.50267200  0.15883500  0.29672200  1
  O  O66  1  0.00691800  0.17466300  0.42635000  1
  O  O67  1  0.00000000  0.50000000  0.04332000  1
  O  O68  1  0.50000000  0.50000000  0.15711000  1
  O  O69  1  0.99950800  0.50002000  0.27169600  1
  O  O70  1  0.49077500  0.46380100  0.38575300  1
  O  O71  1  0.50000000  0.50000000  0.07048000  1
  O  O72  1  0.00000000  0.50000000  0.18427000  1
  O  O73  1  0.50068800  0.49183400  0.29762300  1
  O  O74  1  0.00592700  0.48924100  0.41055400  1
  O  O75  1  0.30966000  1.00000000  0.00000000  1
  O  O76  1  0.80966000  0.00000000  0.11379000  1
  O  O77  1  0.30966000  0.00000000  0.22759000  1
  O  O78  1  0.79097200  0.99067200  0.34135300  1
  O  O79  1  0.30769700  0.01729400  0.46449700  1
  O  O80  1  0.69034000  1.00000000  0.00000000  1
  O  O81  1  0.19034000  0.00000000  0.11379000  1
  O  O82  1  0.69034000  0.00000000  0.22759000  1
  O  O83  1  0.20784900  0.99093000  0.34068500  1
  O  O84  1  0.69796300  0.02066400  0.46246600  1
