# generated using pymatgen
data_MgTiMnVZnCrFeCoCuNiSb20ClO54
_symmetry_space_group_name_H-M   'P 1'
_cell_length_a   6.69090000
_cell_length_b   9.50063300
_cell_length_c   29.16644900
_cell_angle_alpha   89.86054700
_cell_angle_beta   89.99699600
_cell_angle_gamma   89.98600200
_symmetry_Int_Tables_number   1
_chemical_formula_structural   MgTiMnVZnCrFeCoCuNiSb20ClO54
_chemical_formula_sum
'Mg1 Ti1 Mn1 V1 Zn1 Cr1 Fe1 Co1 Cu1 Ni1 Sb20 Cl1 O54'
_cell_volume   1854.04101971
_cell_formula_units_Z   1
loop_
 _symmetry_equiv_pos_site_id
 _symmetry_equiv_pos_as_xyz
  1  'x, y, z'
loop_
 _atom_site_type_symbol
 _atom_site_label
 _atom_site_symmetry_multiplicity
 _atom_site_fract_x
 _atom_site_fract_y
 _atom_site_fract_z
 _atom_site_occupancy
  Mg  Mg0  1  0.00000000  0.66768000  0.00000000  1
  Ti  Ti1  1  0.50000000  0.16768000  0.00000000  1
  Mn  Mn2  1  0.49866500  0.79697200  0.54578300  1
  V  V3  1  0.00000000  0.66768000  0.77241000  1
  Zn  Zn4  1  0.00000000  0.00000000  0.77241000  1
  Cr  Cr5  1  0.50000000  0.50000000  0.00000000  1
  Fe  Fe6  1  0.49820000  0.51475300  0.54481000  1
  Co  Co7  1  0.00000000  0.50000000  0.88621000  1
  Cu  Cu8  1  0.99841500  0.67251100  0.54804200  1
  Ni  Ni9  1  0.50000000  0.83232000  0.77241000  1
  Sb  Sb10  1  0.00000000  0.00000000  0.00000000  1
  Sb  Sb11  1  0.50000000  0.00000000  0.88621000  1
  Sb  Sb12  1  0.49952600  0.00173500  0.66225200  1
  Sb  Sb13  1  0.99840500  0.98481900  0.54430600  1
  Sb  Sb14  1  0.50000000  0.50000000  0.77241000  1
  Sb  Sb15  1  0.99972000  0.50012500  0.66023600  1
  Sb  Sb16  1  0.50000000  0.66768000  0.88621000  1
  Sb  Sb17  1  0.49981500  0.67292300  0.66314600  1
  Sb  Sb18  1  1.00000000  0.16768000  0.88621000  1
  Sb  Sb19  1  0.50000000  0.16768000  0.77241000  1
  Sb  Sb20  1  0.99977600  0.17524700  0.66165400  1
  Sb  Sb21  1  0.49780500  0.12777300  0.53461400  1
  Sb  Sb22  1  0.50000000  0.83232000  0.00000000  1
  Sb  Sb23  1  0.00000000  0.83232000  0.88621000  1
  Sb  Sb24  1  0.99940300  0.83867800  0.66328800  1
  Sb  Sb25  1  1.00000000  0.33232000  0.00000000  1
  Sb  Sb26  1  0.50000000  0.33232000  0.88621000  1
  Sb  Sb27  1  1.00000000  0.33232000  0.77241000  1
  Sb  Sb28  1  0.49965000  0.33855300  0.62608900  1
  Sb  Sb29  1  0.99832500  0.35360100  0.54786100  1
  Cl  Cl30  1  0.49632100  0.44840300  0.47390700  1
  O  O31  1  0.00000000  0.82836000  0.95506000  1
  O  O32  1  0.50000000  0.82836000  0.84126000  1
  O  O33  1  0.00019600  0.84474300  0.72934800  1
  O  O34  1  0.50043800  0.83553000  0.61896500  1
  O  O35  1  0.50000000  0.82836000  0.93115000  1
  O  O36  1  0.00000000  0.82836000  0.81736000  1
  O  O37  1  0.49883000  0.83713000  0.70563000  1
  O  O38  1  0.99633200  0.84056500  0.59442000  1
  O  O39  1  0.69747000  0.32836000  1.00000000  1
  O  O40  1  0.19747000  0.32836000  0.88621000  1
  O  O41  1  0.69747000  0.32836000  0.77241000  1
  O  O42  1  0.19138100  0.33740800  0.66221600  1
  O  O43  1  0.68247900  0.35252500  0.56302400  1
  O  O44  1  0.30253000  0.32836000  0.00000000  1
  O  O45  1  0.80253000  0.32836000  0.88621000  1
  O  O46  1  0.30253000  0.32836000  0.77241000  1
  O  O47  1  0.80802100  0.33723200  0.66249600  1
  O  O48  1  0.31420400  0.35554400  0.56357200  1
  O  O49  1  0.69747000  0.67164000  1.00000000  1
  O  O50  1  0.19747000  0.67164000  0.88621000  1
  O  O51  1  0.69747000  0.67164000  0.77241000  1
  O  O52  1  0.19105100  0.66908700  0.66130900  1
  O  O53  1  0.69486500  0.66057100  0.53697000  1
  O  O54  1  0.30253000  0.67164000  0.00000000  1
  O  O55  1  0.80253000  0.67164000  0.88621000  1
  O  O56  1  0.30253000  0.67164000  0.77241000  1
  O  O57  1  0.80847600  0.66907700  0.66241200  1
  O  O58  1  0.30167500  0.66106900  0.53752900  1
  O  O59  1  1.00000000  0.17164000  0.95506000  1
  O  O60  1  0.50000000  0.17164000  0.84126000  1
  O  O61  1  0.00021600  0.15531300  0.72933600  1
  O  O62  1  0.49895800  0.11964900  0.60494900  1
  O  O63  1  0.50000000  0.17164000  0.93115000  1
  O  O64  1  1.00000000  0.17164000  0.81736000  1
  O  O65  1  0.49921100  0.17009900  0.70066500  1
  O  O66  1  0.99981200  0.16906100  0.59137400  1
  O  O67  1  0.00000000  0.50000000  0.95668000  1
  O  O68  1  0.50000000  0.50000000  0.84289000  1
  O  O69  1  0.00049200  0.50002000  0.72830400  1
  O  O70  1  0.50294100  0.55203100  0.60934100  1
  O  O71  1  0.50000000  0.50000000  0.92952000  1
  O  O72  1  0.00000000  0.50000000  0.81573000  1
  O  O73  1  0.49753500  0.50453700  0.70244900  1
  O  O74  1  0.99534500  0.50991500  0.59371900  1
  O  O75  1  0.69034000  1.00000000  1.00000000  1
  O  O76  1  0.19034000  0.00000000  0.88621000  1
  O  O77  1  0.69034000  1.00000000  0.77241000  1
  O  O78  1  0.19270500  0.00759600  0.65892400  1
  O  O79  1  0.68623200  0.95439600  0.53821400  1
  O  O80  1  0.30966000  0.00000000  0.00000000  1
  O  O81  1  0.80966000  1.00000000  0.88621000  1
  O  O82  1  0.30966000  0.00000000  0.77241000  1
  O  O83  1  0.80654700  0.00794300  0.65935200  1
  O  O84  1  0.31016100  0.95370900  0.53899300  1
