# generated using pymatgen
data_MgTiMnVZnCrFeCoCuNiSb20ClO54
_symmetry_space_group_name_H-M   'P 1'
_cell_length_a   6.63947300
_cell_length_b   9.50224700
_cell_length_c   29.12771100
_cell_angle_alpha   90.00215400
_cell_angle_beta   89.94461300
_cell_angle_gamma   89.95761400
_symmetry_Int_Tables_number   1
_chemical_formula_structural   MgTiMnVZnCrFeCoCuNiSb20ClO54
_chemical_formula_sum
'Mg1 Ti1 Mn1 V1 Zn1 Cr1 Fe1 Co1 Cu1 Ni1 Sb20 Cl1 O54'
_cell_volume   1837.66337245
_cell_formula_units_Z   1
loop_
 _symmetry_equiv_pos_site_id
 _symmetry_equiv_pos_as_xyz
  1  'x, y, z'
loop_
 _atom_site_type_symbol
 _atom_site_label
 _atom_site_symmetry_multiplicity
 _atom_site_fract_x
 _atom_site_fract_y
 _atom_site_fract_z
 _atom_site_occupancy
  Mg  Mg0  1  0.49888100  0.82446200  0.54942000  1
  Ti  Ti1  1  0.49995700  0.32925700  0.65001900  1
  Mn  Mn2  1  0.00000000  0.33232000  0.77241000  1
  V  V3  1  0.50000000  0.66768000  0.88621000  1
  Zn  Zn4  1  0.00086100  0.83575400  0.65101300  1
  Cr  Cr5  1  0.50000000  0.83232000  0.00000000  1
  Fe  Fe6  1  0.49578700  0.50316400  0.54707900  1
  Co  Co7  1  1.00000000  0.33232000  1.00000000  1
  Cu  Cu8  1  0.50000000  0.50000000  0.00000000  1
  Ni  Ni9  1  1.00000000  0.83232000  0.88621000  1
  Sb  Sb10  1  0.00000000  0.00000000  0.00000000  1
  Sb  Sb11  1  0.50000000  0.00000000  0.88621000  1
  Sb  Sb12  1  0.00000000  0.00000000  0.77241000  1
  Sb  Sb13  1  0.50043000  0.00466600  0.65488700  1
  Sb  Sb14  1  0.99872000  0.00168700  0.53809600  1
  Sb  Sb15  1  1.00000000  0.50000000  0.88621000  1
  Sb  Sb16  1  0.50000000  0.50000000  0.77241000  1
  Sb  Sb17  1  0.99958300  0.50975400  0.65625000  1
  Sb  Sb18  1  1.00000000  0.66768000  0.00000000  1
  Sb  Sb19  1  0.00000000  0.66768000  0.77241000  1
  Sb  Sb20  1  0.50090700  0.66571700  0.65760700  1
  Sb  Sb21  1  0.99297300  0.66781400  0.53350100  1
  Sb  Sb22  1  0.50000000  0.16768000  0.00000000  1
  Sb  Sb23  1  1.00000000  0.16768000  0.88621000  1
  Sb  Sb24  1  0.50000000  0.16768000  0.77241000  1
  Sb  Sb25  1  0.00003500  0.16311500  0.65795000  1
  Sb  Sb26  1  0.49684500  0.16642900  0.53484400  1
  Sb  Sb27  1  0.50000000  0.83232000  0.77241000  1
  Sb  Sb28  1  0.50000000  0.33232000  0.88621000  1
  Sb  Sb29  1  0.00060300  0.33688600  0.53865900  1
  Cl  Cl30  1  0.48035500  0.47661800  0.47269500  1
  O  O31  1  0.00000000  0.82836000  0.95506000  1
  O  O32  1  0.50000000  0.82836000  0.84126000  1
  O  O33  1  0.00019600  0.84474300  0.72934800  1
  O  O34  1  0.50119700  0.83286900  0.61677400  1
  O  O35  1  0.50000000  0.82836000  0.93115000  1
  O  O36  1  0.00000000  0.82836000  0.81736000  1
  O  O37  1  0.49914100  0.83992000  0.70310600  1
  O  O38  1  0.99715300  0.82918200  0.57957000  1
  O  O39  1  0.69747000  0.32836000  0.00000000  1
  O  O40  1  0.19747000  0.32836000  0.88621000  1
  O  O41  1  0.69747000  0.32836000  0.77241000  1
  O  O42  1  0.21300500  0.31051000  0.66131000  1
  O  O43  1  0.68554300  0.35117600  0.55284800  1
  O  O44  1  0.30253000  0.32836000  0.00000000  1
  O  O45  1  0.80253000  0.32836000  0.88621000  1
  O  O46  1  0.30253000  0.32836000  0.77241000  1
  O  O47  1  0.78721500  0.31068600  0.66128500  1
  O  O48  1  0.30958700  0.34919800  0.55656100  1
  O  O49  1  0.69747000  0.67164000  0.00000000  1
  O  O50  1  0.19747000  0.67164000  0.88621000  1
  O  O51  1  0.69747000  0.67164000  0.77241000  1
  O  O52  1  0.20451300  0.67662900  0.66142600  1
  O  O53  1  0.68357700  0.65613300  0.54339900  1
  O  O54  1  0.30253000  0.67164000  0.00000000  1
  O  O55  1  0.80253000  0.67164000  0.88621000  1
  O  O56  1  0.30253000  0.67164000  0.77241000  1
  O  O57  1  0.79706500  0.67756000  0.66209900  1
  O  O58  1  0.31431000  0.64970900  0.54773500  1
  O  O59  1  0.00000000  0.17164000  0.95506000  1
  O  O60  1  0.50000000  0.17164000  0.84126000  1
  O  O61  1  0.00021600  0.15531300  0.72933600  1
  O  O62  1  0.50147000  0.16697000  0.61139400  1
  O  O63  1  0.50000000  0.17164000  0.93115000  1
  O  O64  1  0.00000000  0.17164000  0.81736000  1
  O  O65  1  0.50021100  0.15966200  0.70245200  1
  O  O66  1  0.99820500  0.17091000  0.58712400  1
  O  O67  1  1.00000000  0.50000000  0.95668000  1
  O  O68  1  0.50000000  0.50000000  0.84289000  1
  O  O69  1  0.00049200  0.50002000  0.72830400  1
  O  O70  1  0.50550700  0.50067000  0.61563900  1
  O  O71  1  0.50000000  0.50000000  0.92952000  1
  O  O72  1  1.00000000  0.50000000  0.81573000  1
  O  O73  1  0.50017400  0.49774900  0.70123300  1
  O  O74  1  0.99288600  0.50765700  0.57921100  1
  O  O75  1  0.69034000  1.00000000  0.00000000  1
  O  O76  1  0.19034000  0.00000000  0.88621000  1
  O  O77  1  0.69034000  1.00000000  0.77241000  1
  O  O78  1  0.19690500  0.00345800  0.65595600  1
  O  O79  1  0.69025400  0.99772700  0.54791000  1
  O  O80  1  0.30966000  0.00000000  0.00000000  1
  O  O81  1  0.80966000  1.00000000  0.88621000  1
  O  O82  1  0.30966000  0.00000000  0.77241000  1
  O  O83  1  0.80357700  0.00323600  0.65624100  1
  O  O84  1  0.30666600  0.99527200  0.54848400  1
