# generated using pymatgen
data_MgTiMnVZnCrFeCoCuNiSb20ClO54
_symmetry_space_group_name_H-M   'P 1'
_cell_length_a   6.70297200
_cell_length_b   9.46238500
_cell_length_c   29.80186500
_cell_angle_alpha   90.07804400
_cell_angle_beta   89.99679900
_cell_angle_gamma   89.97825000
_symmetry_Int_Tables_number   1
_chemical_formula_structural   MgTiMnVZnCrFeCoCuNiSb20ClO54
_chemical_formula_sum
'Mg1 Ti1 Mn1 V1 Zn1 Cr1 Fe1 Co1 Cu1 Ni1 Sb20 Cl1 O54'
_cell_volume   1890.21422785
_cell_formula_units_Z   1
loop_
 _symmetry_equiv_pos_site_id
 _symmetry_equiv_pos_as_xyz
  1  'x, y, z'
loop_
 _atom_site_type_symbol
 _atom_site_label
 _atom_site_symmetry_multiplicity
 _atom_site_fract_x
 _atom_site_fract_y
 _atom_site_fract_z
 _atom_site_occupancy
  Mg  Mg0  1  0.49973200  0.99940500  0.33574700  1
  Ti  Ti1  1  0.50000000  0.83232000  0.00000000  1
  Mn  Mn2  1  0.49880900  0.16899900  0.43953900  1
  V  V3  1  0.99859400  0.16928700  0.34119100  1
  Zn  Zn4  1  0.50000000  0.83232000  0.22759000  1
  Cr  Cr5  1  1.00000000  0.66768000  0.22759000  1
  Fe  Fe6  1  0.49810400  0.49277000  0.44368900  1
  Co  Co7  1  1.00000000  0.16768000  0.11379000  1
  Cu  Cu8  1  0.00017800  0.49669600  0.33780000  1
  Ni  Ni9  1  0.99806500  0.01986600  0.44024700  1
  Sb  Sb10  1  0.00000000  0.00000000  0.00000000  1
  Sb  Sb11  1  0.50000000  1.00000000  0.11379000  1
  Sb  Sb12  1  0.00000000  1.00000000  0.22759000  1
  Sb  Sb13  1  0.50000000  0.50000000  0.00000000  1
  Sb  Sb14  1  1.00000000  0.50000000  0.11379000  1
  Sb  Sb15  1  0.50000000  0.50000000  0.22759000  1
  Sb  Sb16  1  1.00000000  0.33232000  0.00000000  1
  Sb  Sb17  1  0.50000000  0.33232000  0.11379000  1
  Sb  Sb18  1  1.00000000  0.33232000  0.22759000  1
  Sb  Sb19  1  0.49907200  0.32611300  0.33938200  1
  Sb  Sb20  1  0.99899900  0.33009700  0.44911500  1
  Sb  Sb21  1  0.00000000  0.83232000  0.11379000  1
  Sb  Sb22  1  0.00045300  0.84164700  0.33942500  1
  Sb  Sb23  1  0.49864800  0.83546700  0.44915000  1
  Sb  Sb24  1  0.50000000  0.16768000  0.00000000  1
  Sb  Sb25  1  0.50000000  0.16768000  0.22759000  1
  Sb  Sb26  1  1.00000000  0.66768000  0.00000000  1
  Sb  Sb27  1  0.50000000  0.66768000  0.11379000  1
  Sb  Sb28  1  0.50088400  0.68144000  0.33811100  1
  Sb  Sb29  1  0.99933000  0.66333100  0.44904200  1
  Cl  Cl30  1  0.49016400  0.48820100  0.51673600  1
  O  O31  1  0.00000000  0.17164000  0.04494000  1
  O  O32  1  0.50000000  0.17164000  0.15874000  1
  O  O33  1  0.00019600  0.15525700  0.27065200  1
  O  O34  1  0.50192900  0.16171800  0.37986300  1
  O  O35  1  0.50000000  0.17164000  0.06885000  1
  O  O36  1  1.00000000  0.17164000  0.18264000  1
  O  O37  1  0.49853200  0.17180900  0.29309500  1
  O  O38  1  0.99666100  0.18025500  0.40147300  1
  O  O39  1  0.69747000  0.67164000  0.00000000  1
  O  O40  1  0.19747000  0.67164000  0.11379000  1
  O  O41  1  0.69747000  0.67164000  0.22759000  1
  O  O42  1  0.19664200  0.67772100  0.33971600  1
  O  O43  1  0.68133500  0.64455400  0.44260900  1
  O  O44  1  0.30253000  0.67164000  0.00000000  1
  O  O45  1  0.80253000  0.67164000  0.11379000  1
  O  O46  1  0.30253000  0.67164000  0.22759000  1
  O  O47  1  0.80608600  0.67657300  0.33922300  1
  O  O48  1  0.31635400  0.64614200  0.44135100  1
  O  O49  1  0.69747000  0.32836000  0.00000000  1
  O  O50  1  0.19747000  0.32836000  0.11379000  1
  O  O51  1  0.69747000  0.32836000  0.22759000  1
  O  O52  1  0.19597000  0.30996300  0.33506500  1
  O  O53  1  0.67329600  0.33118300  0.44118800  1
  O  O54  1  0.30253000  0.32836000  0.00000000  1
  O  O55  1  0.80253000  0.32836000  0.11379000  1
  O  O56  1  0.30253000  0.32836000  0.22759000  1
  O  O57  1  0.80307700  0.30861300  0.33437500  1
  O  O58  1  0.32317300  0.33095800  0.44028900  1
  O  O59  1  0.00000000  0.82836000  0.04494000  1
  O  O60  1  0.50000000  0.82836000  0.15874000  1
  O  O61  1  0.00021600  0.84468700  0.27066400  1
  O  O62  1  0.50366700  0.84129100  0.38313900  1
  O  O63  1  0.50000000  0.82836000  0.06885000  1
  O  O64  1  1.00000000  0.82836000  0.18264000  1
  O  O65  1  0.50033900  0.83301600  0.29545700  1
  O  O66  1  0.99774900  0.83383800  0.40874100  1
  O  O67  1  0.00000000  0.50000000  0.04332000  1
  O  O68  1  0.50000000  0.50000000  0.15711000  1
  O  O69  1  0.00049200  0.49998000  0.27169600  1
  O  O70  1  0.50236900  0.50054600  0.37835300  1
  O  O71  1  0.50000000  0.50000000  0.07048000  1
  O  O72  1  1.00000000  0.50000000  0.18427000  1
  O  O73  1  0.49910500  0.49516600  0.29561600  1
  O  O74  1  0.99822200  0.49524900  0.40621300  1
  O  O75  1  0.69034000  1.00000000  0.00000000  1
  O  O76  1  0.19034000  1.00000000  0.11379000  1
  O  O77  1  0.69034000  1.00000000  0.22759000  1
  O  O78  1  0.18312100  0.01223100  0.33909800  1
  O  O79  1  0.69628900  0.03384300  0.44989500  1
  O  O80  1  0.30966000  1.00000000  0.00000000  1
  O  O81  1  0.80966000  1.00000000  0.11379000  1
  O  O82  1  0.30966000  1.00000000  0.22759000  1
  O  O83  1  0.81703000  0.01221000  0.33883200  1
  O  O84  1  0.30060700  0.03375700  0.44923400  1
