# generated using pymatgen
data_MgTiMnVZnCrFeCoCuNiSb20ClO54
_symmetry_space_group_name_H-M   'P 1'
_cell_length_a   6.68900600
_cell_length_b   9.58654900
_cell_length_c   29.20806700
_cell_angle_alpha   90.02136100
_cell_angle_beta   89.98443300
_cell_angle_gamma   89.99967900
_symmetry_Int_Tables_number   1
_chemical_formula_structural   MgTiMnVZnCrFeCoCuNiSb20ClO54
_chemical_formula_sum
'Mg1 Ti1 Mn1 V1 Zn1 Cr1 Fe1 Co1 Cu1 Ni1 Sb20 Cl1 O54'
_cell_volume   1872.95201927
_cell_formula_units_Z   1
loop_
 _symmetry_equiv_pos_site_id
 _symmetry_equiv_pos_as_xyz
  1  'x, y, z'
loop_
 _atom_site_type_symbol
 _atom_site_label
 _atom_site_symmetry_multiplicity
 _atom_site_fract_x
 _atom_site_fract_y
 _atom_site_fract_z
 _atom_site_occupancy
  Mg  Mg0  1  0.00000000  0.16768000  0.11379000  1
  Ti  Ti1  1  0.00000000  0.00000000  0.00000000  1
  Mn  Mn2  1  0.50000000  0.33232000  0.11379000  1
  V  V3  1  0.99966600  0.65090300  0.45555600  1
  Zn  Zn4  1  0.50000000  0.83232000  0.22759000  1
  Cr  Cr5  1  0.99972800  0.34590600  0.45704900  1
  Fe  Fe6  1  0.50105000  0.50036800  0.44904500  1
  Co  Co7  1  0.50000000  0.66768000  0.11379000  1
  Cu  Cu8  1  0.00011800  0.50037200  0.34342300  1
  Ni  Ni9  1  0.50000000  0.50000000  0.22759000  1
  Sb  Sb10  1  0.50000000  1.00000000  0.11379000  1
  Sb  Sb11  1  1.00000000  0.00000000  0.22759000  1
  Sb  Sb12  1  0.49953000  0.99595700  0.34261200  1
  Sb  Sb13  1  0.00360600  0.00078300  0.43046400  1
  Sb  Sb14  1  0.50000000  0.50000000  0.00000000  1
  Sb  Sb15  1  0.00000000  0.50000000  0.11379000  1
  Sb  Sb16  1  1.00000000  0.66768000  0.00000000  1
  Sb  Sb17  1  1.00000000  0.66768000  0.22759000  1
  Sb  Sb18  1  0.49958800  0.66520900  0.34038800  1
  Sb  Sb19  1  0.50000000  0.16768000  0.00000000  1
  Sb  Sb20  1  0.50000000  0.16768000  0.22759000  1
  Sb  Sb21  1  0.99950300  0.17970700  0.34041100  1
  Sb  Sb22  1  0.50129200  0.18753400  0.46047200  1
  Sb  Sb23  1  0.50000000  0.83232000  0.00000000  1
  Sb  Sb24  1  0.00000000  0.83232000  0.11379000  1
  Sb  Sb25  1  0.99950000  0.81971800  0.33996600  1
  Sb  Sb26  1  0.50111700  0.81333400  0.46027600  1
  Sb  Sb27  1  0.00000000  0.33232000  0.00000000  1
  Sb  Sb28  1  1.00000000  0.33232000  0.22759000  1
  Sb  Sb29  1  0.49946700  0.33914100  0.34150000  1
  Cl  Cl30  1  0.50906800  0.50209400  0.52440300  1
  O  O31  1  0.00000000  0.82836000  0.04494000  1
  O  O32  1  0.50000000  0.82836000  0.15874000  1
  O  O33  1  0.99980400  0.84474300  0.27065200  1
  O  O34  1  0.49876800  0.83784100  0.38844000  1
  O  O35  1  0.50000000  0.82836000  0.06885000  1
  O  O36  1  0.00000000  0.82836000  0.18264000  1
  O  O37  1  0.50021000  0.84056800  0.29897500  1
  O  O38  1  0.00161500  0.81050300  0.40979300  1
  O  O39  1  0.30253000  0.32836000  0.00000000  1
  O  O40  1  0.80253000  0.32836000  0.11379000  1
  O  O41  1  0.30253000  0.32836000  0.22759000  1
  O  O42  1  0.80104300  0.32639700  0.33816000  1
  O  O43  1  0.30826200  0.34585200  0.44852900  1
  O  O44  1  0.69747000  0.32836000  0.00000000  1
  O  O45  1  0.19747000  0.32836000  0.11379000  1
  O  O46  1  0.69747000  0.32836000  0.22759000  1
  O  O47  1  0.19820900  0.32612400  0.33780500  1
  O  O48  1  0.69286100  0.34603100  0.44676500  1
  O  O49  1  0.30253000  0.67164000  0.00000000  1
  O  O50  1  0.80253000  0.67164000  0.11379000  1
  O  O51  1  0.30253000  0.67164000  0.22759000  1
  O  O52  1  0.80122500  0.67360700  0.33836200  1
  O  O53  1  0.30717400  0.65488800  0.44817500  1
  O  O54  1  0.69747000  0.67164000  0.00000000  1
  O  O55  1  0.19747000  0.67164000  0.11379000  1
  O  O56  1  0.69747000  0.67164000  0.22759000  1
  O  O57  1  0.19817300  0.67383500  0.33804000  1
  O  O58  1  0.69376800  0.65475400  0.44637400  1
  O  O59  1  0.00000000  0.17164000  0.04494000  1
  O  O60  1  0.50000000  0.17164000  0.15874000  1
  O  O61  1  0.99978400  0.15531300  0.27066400  1
  O  O62  1  0.49858800  0.16276500  0.38804400  1
  O  O63  1  0.50000000  0.17164000  0.06885000  1
  O  O64  1  0.00000000  0.17164000  0.18264000  1
  O  O65  1  0.50014400  0.16075400  0.29784100  1
  O  O66  1  0.00185200  0.18921300  0.40952100  1
  O  O67  1  0.00000000  0.50000000  0.04332000  1
  O  O68  1  0.50000000  0.50000000  0.15711000  1
  O  O69  1  0.99950800  0.50002000  0.27169600  1
  O  O70  1  0.49603700  0.50011900  0.38507100  1
  O  O71  1  0.50000000  0.50000000  0.07048000  1
  O  O72  1  0.00000000  0.50000000  0.18427000  1
  O  O73  1  0.50013700  0.49956700  0.29790100  1
  O  O74  1  0.00211300  0.50246900  0.41718600  1
  O  O75  1  0.30966000  0.00000000  0.00000000  1
  O  O76  1  0.80966000  1.00000000  0.11379000  1
  O  O77  1  0.30966000  0.00000000  0.22759000  1
  O  O78  1  0.80948100  0.00063100  0.34868200  1
  O  O79  1  0.24429500  0.99956600  0.46946500  1
  O  O80  1  0.69034000  1.00000000  0.00000000  1
  O  O81  1  0.19034000  0.00000000  0.11379000  1
  O  O82  1  0.69034000  1.00000000  0.22759000  1
  O  O83  1  0.18953100  0.00064100  0.34845800  1
  O  O84  1  0.76383300  0.00006700  0.47061500  1
