# generated using pymatgen
data_MgTiMnVZnCrFeCoCuNiSb20ClO54
_symmetry_space_group_name_H-M   'P 1'
_cell_length_a   6.69268000
_cell_length_b   9.43483700
_cell_length_c   29.32154400
_cell_angle_alpha   89.94261300
_cell_angle_beta   89.97776900
_cell_angle_gamma   89.99068000
_symmetry_Int_Tables_number   1
_chemical_formula_structural   MgTiMnVZnCrFeCoCuNiSb20ClO54
_chemical_formula_sum
'Mg1 Ti1 Mn1 V1 Zn1 Cr1 Fe1 Co1 Cu1 Ni1 Sb20 Cl1 O54'
_cell_volume   1851.48859469
_cell_formula_units_Z   1
loop_
 _symmetry_equiv_pos_site_id
 _symmetry_equiv_pos_as_xyz
  1  'x, y, z'
loop_
 _atom_site_type_symbol
 _atom_site_label
 _atom_site_symmetry_multiplicity
 _atom_site_fract_x
 _atom_site_fract_y
 _atom_site_fract_z
 _atom_site_occupancy
  Mg  Mg0  1  0.50009800  0.33709100  0.66185500  1
  Ti  Ti1  1  0.50000000  0.00000000  0.88621000  1
  Mn  Mn2  1  0.00010200  0.17388200  0.66048500  1
  V  V3  1  0.00000000  0.33232000  0.77241000  1
  Zn  Zn4  1  0.00000000  0.83232000  0.88621000  1
  Cr  Cr5  1  0.50000000  0.83232000  0.00000000  1
  Fe  Fe6  1  0.49871000  0.49809000  0.55570700  1
  Co  Co7  1  0.49895100  0.17917400  0.55740400  1
  Cu  Cu8  1  0.49990800  0.65500700  0.65698400  1
  Ni  Ni9  1  0.00000000  0.16768000  0.88621000  1
  Sb  Sb10  1  0.00000000  0.00000000  0.00000000  1
  Sb  Sb11  1  0.00000000  0.00000000  0.77241000  1
  Sb  Sb12  1  0.49990400  0.00050900  0.65906100  1
  Sb  Sb13  1  0.99942400  0.01199300  0.54177300  1
  Sb  Sb14  1  0.50000000  0.50000000  0.00000000  1
  Sb  Sb15  1  0.00000000  0.50000000  0.88621000  1
  Sb  Sb16  1  0.50000000  0.50000000  0.77241000  1
  Sb  Sb17  1  0.00006400  0.49297400  0.65867300  1
  Sb  Sb18  1  0.00000000  0.66768000  0.00000000  1
  Sb  Sb19  1  0.50000000  0.66768000  0.88621000  1
  Sb  Sb20  1  0.00000000  0.66768000  0.77241000  1
  Sb  Sb21  1  0.00212800  0.65824300  0.53927700  1
  Sb  Sb22  1  0.50000000  0.16768000  0.00000000  1
  Sb  Sb23  1  0.50000000  0.16768000  0.77241000  1
  Sb  Sb24  1  0.50000000  0.83232000  0.77241000  1
  Sb  Sb25  1  0.99920000  0.83231100  0.65559800  1
  Sb  Sb26  1  0.50026900  0.83512000  0.54681400  1
  Sb  Sb27  1  0.00000000  0.33232000  0.00000000  1
  Sb  Sb28  1  0.50000000  0.33232000  0.88621000  1
  Sb  Sb29  1  0.99949200  0.32838200  0.54465500  1
  Cl  Cl30  1  0.48491800  0.51040900  0.47860300  1
  O  O31  1  0.00000000  0.82836000  0.95506000  1
  O  O32  1  0.50000000  0.82836000  0.84126000  1
  O  O33  1  0.00019600  0.84474300  0.72934800  1
  O  O34  1  0.50346500  0.83845200  0.61589700  1
  O  O35  1  0.50000000  0.82836000  0.93115000  1
  O  O36  1  0.00000000  0.82836000  0.81736000  1
  O  O37  1  0.49972100  0.83745600  0.70439700  1
  O  O38  1  0.99811000  0.83576200  0.58560900  1
  O  O39  1  0.69747000  0.32836000  1.00000000  1
  O  O40  1  0.19747000  0.32836000  0.88621000  1
  O  O41  1  0.69747000  0.32836000  0.77241000  1
  O  O42  1  0.18456500  0.32420100  0.66092500  1
  O  O43  1  0.67563100  0.33374000  0.55162700  1
  O  O44  1  0.30253000  0.32836000  1.00000000  1
  O  O45  1  0.80253000  0.32836000  0.88621000  1
  O  O46  1  0.30253000  0.32836000  0.77241000  1
  O  O47  1  0.81564900  0.32407900  0.66100000  1
  O  O48  1  0.32073000  0.33346200  0.55267400  1
  O  O49  1  0.69747000  0.67164000  1.00000000  1
  O  O50  1  0.19747000  0.67164000  0.88621000  1
  O  O51  1  0.69747000  0.67164000  0.77241000  1
  O  O52  1  0.19285700  0.66578900  0.66030700  1
  O  O53  1  0.69252800  0.65037000  0.55448200  1
  O  O54  1  0.30253000  0.67164000  1.00000000  1
  O  O55  1  0.80253000  0.67164000  0.88621000  1
  O  O56  1  0.30253000  0.67164000  0.77241000  1
  O  O57  1  0.80699900  0.66540800  0.66053000  1
  O  O58  1  0.30712900  0.65313100  0.55720200  1
  O  O59  1  0.00000000  0.17164000  0.95506000  1
  O  O60  1  0.50000000  0.17164000  0.84126000  1
  O  O61  1  0.00021600  0.15531300  0.72933600  1
  O  O62  1  0.50011200  0.16641800  0.62041800  1
  O  O63  1  0.50000000  0.17164000  0.93115000  1
  O  O64  1  0.00000000  0.17164000  0.81736000  1
  O  O65  1  0.49924200  0.15961400  0.70599500  1
  O  O66  1  0.99910400  0.16866000  0.59180700  1
  O  O67  1  0.00000000  0.50000000  0.95668000  1
  O  O68  1  0.50000000  0.50000000  0.84289000  1
  O  O69  1  0.00049200  0.50002000  0.72830400  1
  O  O70  1  0.50289400  0.49308200  0.61531800  1
  O  O71  1  0.50000000  0.50000000  0.92952000  1
  O  O72  1  0.00000000  0.50000000  0.81573000  1
  O  O73  1  0.49960900  0.50410300  0.70654000  1
  O  O74  1  0.99844300  0.49659900  0.58898200  1
  O  O75  1  0.69034000  1.00000000  1.00000000  1
  O  O76  1  0.19034000  0.00000000  0.88621000  1
  O  O77  1  0.69034000  1.00000000  0.77241000  1
  O  O78  1  0.18838800  0.00289200  0.65933100  1
  O  O79  1  0.68719900  0.02834200  0.54813000  1
  O  O80  1  0.30966000  0.00000000  1.00000000  1
  O  O81  1  0.80966000  1.00000000  0.88621000  1
  O  O82  1  0.30966000  0.00000000  0.77241000  1
  O  O83  1  0.81161000  0.00363600  0.65956700  1
  O  O84  1  0.31192300  0.02780000  0.54840300  1
