# generated using pymatgen
data_MgTiMnVZnCrFeCoCuNiSb20ClO54
_symmetry_space_group_name_H-M   'P 1'
_cell_length_a   6.69473800
_cell_length_b   9.53678800
_cell_length_c   29.06797100
_cell_angle_alpha   89.96159400
_cell_angle_beta   89.99115000
_cell_angle_gamma   89.99975700
_symmetry_Int_Tables_number   1
_chemical_formula_structural   MgTiMnVZnCrFeCoCuNiSb20ClO54
_chemical_formula_sum
'Mg1 Ti1 Mn1 V1 Zn1 Cr1 Fe1 Co1 Cu1 Ni1 Sb20 Cl1 O54'
_cell_volume   1855.88187118
_cell_formula_units_Z   1
loop_
 _symmetry_equiv_pos_site_id
 _symmetry_equiv_pos_as_xyz
  1  'x, y, z'
loop_
 _atom_site_type_symbol
 _atom_site_label
 _atom_site_symmetry_multiplicity
 _atom_site_fract_x
 _atom_site_fract_y
 _atom_site_fract_z
 _atom_site_occupancy
  Mg  Mg0  1  0.50000000  0.00000000  0.88621000  1
  Ti  Ti1  1  0.00001400  0.16584000  0.66890900  1
  Mn  Mn2  1  0.50043200  0.83349300  0.55224200  1
  V  V3  1  1.00000000  0.66768000  0.00000000  1
  Zn  Zn4  1  0.00000000  0.33232000  0.77241000  1
  Cr  Cr5  1  0.50040500  0.16435300  0.55211500  1
  Fe  Fe6  1  0.50074700  0.49694900  0.54722800  1
  Co  Co7  1  0.00000000  0.00000000  0.77241000  1
  Cu  Cu8  1  0.49995500  0.66456900  0.65654600  1
  Ni  Ni9  1  0.00000000  0.33232000  0.00000000  1
  Sb  Sb10  1  0.00000000  0.00000000  0.00000000  1
  Sb  Sb11  1  0.49986100  0.99265400  0.65912100  1
  Sb  Sb12  1  0.00055900  0.00232600  0.54219500  1
  Sb  Sb13  1  0.50000000  0.50000000  0.00000000  1
  Sb  Sb14  1  1.00000000  0.50000000  0.88621000  1
  Sb  Sb15  1  0.50000000  0.50000000  0.77241000  1
  Sb  Sb16  1  0.00002500  0.50239400  0.65905100  1
  Sb  Sb17  1  0.50000000  0.33232000  0.88621000  1
  Sb  Sb18  1  0.49986800  0.34278900  0.65518100  1
  Sb  Sb19  1  0.00047900  0.32835500  0.54271800  1
  Sb  Sb20  1  0.50000000  0.83232000  0.00000000  1
  Sb  Sb21  1  1.00000000  0.83232000  0.88621000  1
  Sb  Sb22  1  0.50000000  0.83232000  0.77241000  1
  Sb  Sb23  1  0.99994300  0.83226600  0.65931300  1
  Sb  Sb24  1  0.50000000  0.16768000  0.00000000  1
  Sb  Sb25  1  0.00000000  0.16768000  0.88621000  1
  Sb  Sb26  1  0.50000000  0.16768000  0.77241000  1
  Sb  Sb27  1  0.50000000  0.66768000  0.88621000  1
  Sb  Sb28  1  1.00000000  0.66768000  0.77241000  1
  Sb  Sb29  1  0.00012100  0.66625600  0.53999600  1
  Cl  Cl30  1  0.50579100  0.49541400  0.47234100  1
  O  O31  1  0.00000000  0.17164000  0.95506000  1
  O  O32  1  0.50000000  0.17164000  0.84126000  1
  O  O33  1  0.99980400  0.15525700  0.72934800  1
  O  O34  1  0.49856800  0.16246000  0.61628700  1
  O  O35  1  0.50000000  0.17164000  0.93115000  1
  O  O36  1  0.00000000  0.17164000  0.81736000  1
  O  O37  1  0.49998100  0.16773900  0.70185100  1
  O  O38  1  0.00071900  0.16315200  0.58777400  1
  O  O39  1  0.30253000  0.67164000  0.00000000  1
  O  O40  1  0.80253000  0.67164000  0.88621000  1
  O  O41  1  0.30253000  0.67164000  0.77241000  1
  O  O42  1  0.80459000  0.66694100  0.65863200  1
  O  O43  1  0.31785500  0.67790500  0.54644400  1
  O  O44  1  0.69747000  0.67164000  0.00000000  1
  O  O45  1  0.19747000  0.67164000  0.88621000  1
  O  O46  1  0.69747000  0.67164000  0.77241000  1
  O  O47  1  0.19523100  0.66691000  0.65877400  1
  O  O48  1  0.68291300  0.67773100  0.54711800  1
  O  O49  1  0.30253000  0.32836000  0.00000000  1
  O  O50  1  0.80253000  0.32836000  0.88621000  1
  O  O51  1  0.30253000  0.32836000  0.77241000  1
  O  O52  1  0.81082400  0.33080200  0.65876400  1
  O  O53  1  0.31913800  0.32382400  0.54872500  1
  O  O54  1  0.69747000  0.32836000  0.00000000  1
  O  O55  1  0.19747000  0.32836000  0.88621000  1
  O  O56  1  0.69747000  0.32836000  0.77241000  1
  O  O57  1  0.18902200  0.33083400  0.65888200  1
  O  O58  1  0.68146400  0.32329100  0.54895100  1
  O  O59  1  1.00000000  0.82836000  0.95506000  1
  O  O60  1  0.50000000  0.82836000  0.84126000  1
  O  O61  1  0.99978400  0.84468700  0.72933600  1
  O  O62  1  0.49941500  0.83383800  0.61627800  1
  O  O63  1  0.50000000  0.82836000  0.93115000  1
  O  O64  1  1.00000000  0.82836000  0.81736000  1
  O  O65  1  0.50019500  0.83327600  0.70445900  1
  O  O66  1  0.00072000  0.83546600  0.58768800  1
  O  O67  1  1.00000000  0.50000000  0.95668000  1
  O  O68  1  0.50000000  0.50000000  0.84289000  1
  O  O69  1  0.99950800  0.49998000  0.72830400  1
  O  O70  1  0.49975400  0.50010100  0.61062300  1
  O  O71  1  0.50000000  0.50000000  0.92952000  1
  O  O72  1  1.00000000  0.50000000  0.81573000  1
  O  O73  1  0.50037000  0.49732100  0.70262800  1
  O  O74  1  0.00082500  0.49925700  0.58763900  1
  O  O75  1  0.30966000  0.00000000  0.00000000  1
  O  O76  1  0.80966000  0.00000000  0.88621000  1
  O  O77  1  0.30966000  0.00000000  0.77241000  1
  O  O78  1  0.80829900  0.00351600  0.65877100  1
  O  O79  1  0.32066500  0.99574200  0.54582500  1
  O  O80  1  0.69034000  0.00000000  0.00000000  1
  O  O81  1  0.19034000  0.00000000  0.88621000  1
  O  O82  1  0.69034000  0.00000000  0.77241000  1
  O  O83  1  0.19139100  0.00350300  0.65888800  1
  O  O84  1  0.68077900  0.99600500  0.54606500  1
