# generated using pymatgen
data_MgTiMnVZnCrFeCoCuNiSb20ClO54
_symmetry_space_group_name_H-M   'P 1'
_cell_length_a   6.62559300
_cell_length_b   9.36301000
_cell_length_c   28.78248100
_cell_angle_alpha   89.84821000
_cell_angle_beta   89.97731400
_cell_angle_gamma   89.99355500
_symmetry_Int_Tables_number   1
_chemical_formula_structural   MgTiMnVZnCrFeCoCuNiSb20ClO54
_chemical_formula_sum
'Mg1 Ti1 Mn1 V1 Zn1 Cr1 Fe1 Co1 Cu1 Ni1 Sb20 Cl1 O54'
_cell_volume   1785.52899653
_cell_formula_units_Z   1
loop_
 _symmetry_equiv_pos_site_id
 _symmetry_equiv_pos_as_xyz
  1  'x, y, z'
loop_
 _atom_site_type_symbol
 _atom_site_label
 _atom_site_symmetry_multiplicity
 _atom_site_fract_x
 _atom_site_fract_y
 _atom_site_fract_z
 _atom_site_occupancy
  Mg  Mg0  1  0.00000000  0.16768000  0.88621000  1
  Ti  Ti1  1  0.50000000  0.66768000  0.88621000  1
  Mn  Mn2  1  0.50000000  0.83232000  1.00000000  1
  V  V3  1  0.50000000  0.00000000  0.88621000  1
  Zn  Zn4  1  0.50000000  0.33232000  0.88621000  1
  Cr  Cr5  1  0.00000000  0.33232000  1.00000000  1
  Fe  Fe6  1  0.49841900  0.49639900  0.54557600  1
  Co  Co7  1  0.00000000  0.33232000  0.77241000  1
  Cu  Cu8  1  0.99676100  0.33546000  0.55262300  1
  Ni  Ni9  1  0.50000000  0.16768000  0.77241000  1
  Sb  Sb10  1  0.00000000  0.00000000  0.00000000  1
  Sb  Sb11  1  0.00000000  1.00000000  0.77241000  1
  Sb  Sb12  1  0.49995400  0.00358800  0.65517100  1
  Sb  Sb13  1  0.99779200  0.04790800  0.52569400  1
  Sb  Sb14  1  0.50000000  0.50000000  1.00000000  1
  Sb  Sb15  1  0.00000000  0.50000000  0.88621000  1
  Sb  Sb16  1  0.50000000  0.50000000  0.77241000  1
  Sb  Sb17  1  0.00015600  0.50666200  0.65858000  1
  Sb  Sb18  1  0.00000000  0.66768000  1.00000000  1
  Sb  Sb19  1  0.00000000  0.66768000  0.77241000  1
  Sb  Sb20  1  0.50032000  0.66892900  0.64960300  1
  Sb  Sb21  1  0.99988700  0.62062300  0.52660000  1
  Sb  Sb22  1  0.50000000  0.16768000  1.00000000  1
  Sb  Sb23  1  0.99977200  0.15665900  0.65970400  1
  Sb  Sb24  1  0.49606900  0.18805000  0.51975500  1
  Sb  Sb25  1  0.00000000  0.83232000  0.88621000  1
  Sb  Sb26  1  0.50000000  0.83232000  0.77241000  1
  Sb  Sb27  1  0.00031400  0.83212800  0.62539800  1
  Sb  Sb28  1  0.49883100  0.82448400  0.52766700  1
  Sb  Sb29  1  0.50001600  0.32636500  0.65776900  1
  Cl  Cl30  1  0.49376200  0.52031700  0.46947900  1
  O  O31  1  0.00000000  0.82836000  0.95506000  1
  O  O32  1  0.50000000  0.82836000  0.84126000  1
  O  O33  1  0.00019600  0.84474300  0.72934800  1
  O  O34  1  0.50175600  0.84342000  0.60771000  1
  O  O35  1  0.50000000  0.82836000  0.93115000  1
  O  O36  1  0.00000000  0.82836000  0.81736000  1
  O  O37  1  0.49957100  0.82969200  0.70009600  1
  O  O38  1  0.99824100  0.83374900  0.53690000  1
  O  O39  1  0.69747000  0.32836000  1.00000000  1
  O  O40  1  0.19747000  0.32836000  0.88621000  1
  O  O41  1  0.69747000  0.32836000  0.77241000  1
  O  O42  1  0.19109700  0.33212400  0.65947500  1
  O  O43  1  0.69292800  0.34467500  0.54427400  1
  O  O44  1  0.30253000  0.32836000  1.00000000  1
  O  O45  1  0.80253000  0.32836000  0.88621000  1
  O  O46  1  0.30253000  0.32836000  0.77241000  1
  O  O47  1  0.80885600  0.33218100  0.65968100  1
  O  O48  1  0.30166400  0.34540400  0.54488900  1
  O  O49  1  0.69747000  0.67164000  1.00000000  1
  O  O50  1  0.19747000  0.67164000  0.88621000  1
  O  O51  1  0.69747000  0.67164000  0.77241000  1
  O  O52  1  0.19647500  0.67472800  0.66045600  1
  O  O53  1  0.69140100  0.65300500  0.55119800  1
  O  O54  1  0.30253000  0.67164000  1.00000000  1
  O  O55  1  0.80253000  0.67164000  0.88621000  1
  O  O56  1  0.30253000  0.67164000  0.77241000  1
  O  O57  1  0.80439800  0.67503500  0.66059200  1
  O  O58  1  0.30707700  0.65371600  0.55204800  1
  O  O59  1  0.00000000  0.17164000  0.95506000  1
  O  O60  1  0.50000000  0.17164000  0.84126000  1
  O  O61  1  0.00021600  0.15531300  0.72933600  1
  O  O62  1  0.49957300  0.16856100  0.61203100  1
  O  O63  1  0.50000000  0.17164000  0.93115000  1
  O  O64  1  0.00000000  0.17164000  0.81736000  1
  O  O65  1  0.50014500  0.16144300  0.70281000  1
  O  O66  1  0.99736700  0.14916700  0.59119000  1
  O  O67  1  0.00000000  0.50000000  0.95668000  1
  O  O68  1  0.50000000  0.50000000  0.84289000  1
  O  O69  1  0.00049200  0.50002000  0.72830400  1
  O  O70  1  0.49974500  0.48983200  0.61159800  1
  O  O71  1  0.50000000  0.50000000  0.92952000  1
  O  O72  1  0.00000000  0.50000000  0.81573000  1
  O  O73  1  0.49998200  0.50913400  0.70011000  1
  O  O74  1  0.99757500  0.51789800  0.59111300  1
  O  O75  1  0.69034000  1.00000000  0.00000000  1
  O  O76  1  0.19034000  0.00000000  0.88621000  1
  O  O77  1  0.69034000  1.00000000  0.77241000  1
  O  O78  1  0.19676800  0.99014400  0.65933600  1
  O  O79  1  0.69205400  0.01590400  0.54240100  1
  O  O80  1  0.30966000  0.00000000  1.00000000  1
  O  O81  1  0.80966000  1.00000000  0.88621000  1
  O  O82  1  0.30966000  0.00000000  0.77241000  1
  O  O83  1  0.80319800  0.98994800  0.65932700  1
  O  O84  1  0.30344100  0.01598700  0.54311100  1
