# generated using pymatgen
data_MgTiMnVZnCrFeCoCuNiSb20ClO54
_symmetry_space_group_name_H-M   'P 1'
_cell_length_a   6.65669700
_cell_length_b   9.46094200
_cell_length_c   29.33695200
_cell_angle_alpha   89.94922300
_cell_angle_beta   89.96551700
_cell_angle_gamma   89.99782000
_symmetry_Int_Tables_number   1
_chemical_formula_structural   MgTiMnVZnCrFeCoCuNiSb20ClO54
_chemical_formula_sum
'Mg1 Ti1 Mn1 V1 Zn1 Cr1 Fe1 Co1 Cu1 Ni1 Sb20 Cl1 O54'
_cell_volume   1847.59981456
_cell_formula_units_Z   1
loop_
 _symmetry_equiv_pos_site_id
 _symmetry_equiv_pos_as_xyz
  1  'x, y, z'
loop_
 _atom_site_type_symbol
 _atom_site_label
 _atom_site_symmetry_multiplicity
 _atom_site_fract_x
 _atom_site_fract_y
 _atom_site_fract_z
 _atom_site_occupancy
  Mg  Mg0  1  0.49955900  0.33401500  0.34575500  1
  Ti  Ti1  1  0.00000000  0.66768000  0.22759000  1
  Mn  Mn2  1  0.49647100  0.82380500  0.45009000  1
  V  V3  1  0.50000000  0.50000000  1.00000000  1
  Zn  Zn4  1  0.99669200  0.33954800  0.44245400  1
  Cr  Cr5  1  0.50000000  0.83232000  1.00000000  1
  Fe  Fe6  1  0.49608500  0.50808800  0.45017300  1
  Co  Co7  1  0.00000000  0.83232000  0.11379000  1
  Cu  Cu8  1  0.50000000  0.83232000  0.22759000  1
  Ni  Ni9  1  1.00000000  0.16768000  0.11379000  1
  Sb  Sb10  1  0.00000000  0.00000000  0.00000000  1
  Sb  Sb11  1  0.50000000  1.00000000  0.11379000  1
  Sb  Sb12  1  0.00000000  0.00000000  0.22759000  1
  Sb  Sb13  1  0.50041800  0.00577200  0.34018800  1
  Sb  Sb14  1  0.99715600  0.00510000  0.46343100  1
  Sb  Sb15  1  0.00000000  0.50000000  0.11379000  1
  Sb  Sb16  1  0.50000000  0.50000000  0.22759000  1
  Sb  Sb17  1  0.99896300  0.49468000  0.34011100  1
  Sb  Sb18  1  1.00000000  0.33232000  1.00000000  1
  Sb  Sb19  1  0.50000000  0.33232000  0.11379000  1
  Sb  Sb20  1  1.00000000  0.33232000  0.22759000  1
  Sb  Sb21  1  0.00295600  0.83129800  0.34336500  1
  Sb  Sb22  1  0.50000000  0.16768000  1.00000000  1
  Sb  Sb23  1  0.50000000  0.16768000  0.22759000  1
  Sb  Sb24  1  0.99955200  0.17104000  0.34297800  1
  Sb  Sb25  1  0.49752800  0.17932700  0.45759200  1
  Sb  Sb26  1  0.00000000  0.66768000  1.00000000  1
  Sb  Sb27  1  0.50000000  0.66768000  0.11379000  1
  Sb  Sb28  1  0.50083800  0.66126600  0.33916000  1
  Sb  Sb29  1  0.99644700  0.64564700  0.46220600  1
  Cl  Cl30  1  0.48839100  0.49756900  0.52446300  1
  O  O31  1  1.00000000  0.17164000  0.04494000  1
  O  O32  1  0.50000000  0.17164000  0.15874000  1
  O  O33  1  0.00019600  0.15525700  0.27065200  1
  O  O34  1  0.50110200  0.15856700  0.38689400  1
  O  O35  1  0.50000000  0.17164000  0.06885000  1
  O  O36  1  1.00000000  0.17164000  0.18264000  1
  O  O37  1  0.50068700  0.17033200  0.29639600  1
  O  O38  1  0.99642600  0.15220900  0.41045800  1
  O  O39  1  0.69747000  0.67164000  1.00000000  1
  O  O40  1  0.19747000  0.67164000  0.11379000  1
  O  O41  1  0.69747000  0.67164000  0.22759000  1
  O  O42  1  0.19952000  0.64991300  0.33296400  1
  O  O43  1  0.67786800  0.66458700  0.45135500  1
  O  O44  1  0.30253000  0.67164000  1.00000000  1
  O  O45  1  0.80253000  0.67164000  0.11379000  1
  O  O46  1  0.30253000  0.67164000  0.22759000  1
  O  O47  1  0.80254500  0.65270000  0.33261900  1
  O  O48  1  0.31380700  0.66509100  0.44959100  1
  O  O49  1  0.69747000  0.32836000  1.00000000  1
  O  O50  1  0.19747000  0.32836000  0.11379000  1
  O  O51  1  0.69747000  0.32836000  0.22759000  1
  O  O52  1  0.19162200  0.33216000  0.34011000  1
  O  O53  1  0.69609000  0.35477400  0.44804700  1
  O  O54  1  0.30253000  0.32836000  1.00000000  1
  O  O55  1  0.80253000  0.32836000  0.11379000  1
  O  O56  1  0.30253000  0.32836000  0.22759000  1
  O  O57  1  0.80742300  0.33170700  0.33990400  1
  O  O58  1  0.29817200  0.35441300  0.44705900  1
  O  O59  1  0.00000000  0.82836000  0.04494000  1
  O  O60  1  0.50000000  0.82836000  0.15874000  1
  O  O61  1  0.00021600  0.84468700  0.27066400  1
  O  O62  1  0.50091000  0.83339500  0.38201000  1
  O  O63  1  0.50000000  0.82836000  0.06885000  1
  O  O64  1  0.00000000  0.82836000  0.18264000  1
  O  O65  1  0.49865500  0.83500300  0.29731400  1
  O  O66  1  0.99323800  0.82579100  0.42728400  1
  O  O67  1  0.00000000  0.50000000  0.04332000  1
  O  O68  1  0.50000000  0.50000000  0.15711000  1
  O  O69  1  0.00049200  0.49998000  0.27169600  1
  O  O70  1  0.50370500  0.50968600  0.38468200  1
  O  O71  1  0.50000000  0.50000000  0.07048000  1
  O  O72  1  0.00000000  0.50000000  0.18427000  1
  O  O73  1  0.50199700  0.49407200  0.29586800  1
  O  O74  1  0.99676600  0.51821600  0.40610900  1
  O  O75  1  0.69034000  0.00000000  0.00000000  1
  O  O76  1  0.19034000  1.00000000  0.11379000  1
  O  O77  1  0.69034000  0.00000000  0.22759000  1
  O  O78  1  0.20018200  0.01725100  0.33727400  1
  O  O79  1  0.68531900  0.97424700  0.45693600  1
  O  O80  1  0.30966000  1.00000000  1.00000000  1
  O  O81  1  0.80966000  0.00000000  0.11379000  1
  O  O82  1  0.30966000  1.00000000  0.22759000  1
  O  O83  1  0.80120800  0.01525000  0.33724600  1
  O  O84  1  0.30726000  0.97412700  0.45489500  1
