# generated using pymatgen
data_MgTiMnVZnCrFeCoCuNiSb20ClO54
_symmetry_space_group_name_H-M   'P 1'
_cell_length_a   6.71418200
_cell_length_b   9.64252700
_cell_length_c   29.16543300
_cell_angle_alpha   90.00587600
_cell_angle_beta   89.89854600
_cell_angle_gamma   89.99940500
_symmetry_Int_Tables_number   1
_chemical_formula_structural   MgTiMnVZnCrFeCoCuNiSb20ClO54
_chemical_formula_sum
'Mg1 Ti1 Mn1 V1 Zn1 Cr1 Fe1 Co1 Cu1 Ni1 Sb20 Cl1 O54'
_cell_volume   1888.21619567
_cell_formula_units_Z   1
loop_
 _symmetry_equiv_pos_site_id
 _symmetry_equiv_pos_as_xyz
  1  'x, y, z'
loop_
 _atom_site_type_symbol
 _atom_site_label
 _atom_site_symmetry_multiplicity
 _atom_site_fract_x
 _atom_site_fract_y
 _atom_site_fract_z
 _atom_site_occupancy
  Mg  Mg0  1  0.50000000  0.00000000  0.88621000  1
  Ti  Ti1  1  1.00000000  0.33232000  0.00000000  1
  Mn  Mn2  1  0.50000000  0.66768000  0.88621000  1
  V  V3  1  0.50357900  0.66714700  0.66072800  1
  Zn  Zn4  1  0.50059300  0.99666200  0.65883700  1
  Cr  Cr5  1  0.99552000  0.01491800  0.58152600  1
  Fe  Fe6  1  0.49973200  0.49914700  0.55172600  1
  Co  Co7  1  0.99898500  0.33533500  0.55909200  1
  Cu  Cu8  1  0.00000000  0.00000000  0.77241000  1
  Ni  Ni9  1  0.00090800  0.16774400  0.66396500  1
  Sb  Sb10  1  0.00000000  0.00000000  0.00000000  1
  Sb  Sb11  1  0.50000000  0.50000000  0.00000000  1
  Sb  Sb12  1  0.00000000  0.50000000  0.88621000  1
  Sb  Sb13  1  0.50000000  0.50000000  0.77241000  1
  Sb  Sb14  1  0.00187300  0.49894300  0.65718200  1
  Sb  Sb15  1  0.00000000  0.66768000  0.00000000  1
  Sb  Sb16  1  0.00000000  0.66768000  0.77241000  1
  Sb  Sb17  1  0.00297700  0.66613500  0.54303900  1
  Sb  Sb18  1  0.50000000  0.16768000  0.00000000  1
  Sb  Sb19  1  0.00000000  0.16768000  0.88621000  1
  Sb  Sb20  1  0.50000000  0.16768000  0.77241000  1
  Sb  Sb21  1  0.49894600  0.19585000  0.54483800  1
  Sb  Sb22  1  0.50000000  0.83232000  0.00000000  1
  Sb  Sb23  1  0.00000000  0.83232000  0.88621000  1
  Sb  Sb24  1  0.50000000  0.83232000  0.77241000  1
  Sb  Sb25  1  0.00157400  0.83600900  0.66184800  1
  Sb  Sb26  1  0.50308200  0.81540700  0.55065900  1
  Sb  Sb27  1  0.50000000  0.33232000  0.88621000  1
  Sb  Sb28  1  0.00000000  0.33232000  0.77241000  1
  Sb  Sb29  1  0.50160200  0.33472100  0.65708600  1
  Cl  Cl30  1  0.49138100  0.49081300  0.47652300  1
  O  O31  1  0.00000000  0.82836000  0.95506000  1
  O  O32  1  0.50000000  0.82836000  0.84126000  1
  O  O33  1  0.00019600  0.84474300  0.72934800  1
  O  O34  1  0.50317300  0.81499400  0.61880600  1
  O  O35  1  0.50000000  0.82836000  0.93115000  1
  O  O36  1  0.00000000  0.82836000  0.81736000  1
  O  O37  1  0.50108800  0.81838800  0.70379900  1
  O  O38  1  0.99436400  0.81077900  0.59238900  1
  O  O39  1  0.69747000  0.32836000  1.00000000  1
  O  O40  1  0.19747000  0.32836000  0.88621000  1
  O  O41  1  0.69747000  0.32836000  0.77241000  1
  O  O42  1  0.19549800  0.34128500  0.66283600  1
  O  O43  1  0.70247800  0.35142200  0.55220300  1
  O  O44  1  0.30253000  0.32836000  1.00000000  1
  O  O45  1  0.80253000  0.32836000  0.88621000  1
  O  O46  1  0.30253000  0.32836000  0.77241000  1
  O  O47  1  0.80694500  0.34165100  0.66336800  1
  O  O48  1  0.29543900  0.35154700  0.55329600  1
  O  O49  1  0.69747000  0.67164000  1.00000000  1
  O  O50  1  0.19747000  0.67164000  0.88621000  1
  O  O51  1  0.69747000  0.67164000  0.77241000  1
  O  O52  1  0.19838500  0.66349500  0.66285000  1
  O  O53  1  0.68716700  0.64892500  0.55035900  1
  O  O54  1  0.30253000  0.67164000  1.00000000  1
  O  O55  1  0.80253000  0.67164000  0.88621000  1
  O  O56  1  0.30253000  0.67164000  0.77241000  1
  O  O57  1  0.80305900  0.66304300  0.66348300  1
  O  O58  1  0.31524500  0.65037500  0.55306000  1
  O  O59  1  0.00000000  0.17164000  0.95506000  1
  O  O60  1  0.50000000  0.17164000  0.84126000  1
  O  O61  1  0.00021600  0.15531300  0.72933600  1
  O  O62  1  0.50254200  0.17436300  0.61395000  1
  O  O63  1  0.50000000  0.17164000  0.93115000  1
  O  O64  1  0.00000000  0.17164000  0.81736000  1
  O  O65  1  0.50078700  0.17791300  0.70322900  1
  O  O66  1  0.99647600  0.18666200  0.59807000  1
  O  O67  1  0.00000000  0.50000000  0.95668000  1
  O  O68  1  0.50000000  0.50000000  0.84289000  1
  O  O69  1  0.00049200  0.50002000  0.72830400  1
  O  O70  1  0.50415100  0.50917900  0.61754600  1
  O  O71  1  0.50000000  0.50000000  0.92952000  1
  O  O72  1  0.00000000  0.50000000  0.81573000  1
  O  O73  1  0.49823600  0.50402700  0.70193200  1
  O  O74  1  0.99683300  0.51323900  0.58990900  1
  O  O75  1  0.69034000  1.00000000  1.00000000  1
  O  O76  1  0.19034000  0.00000000  0.88621000  1
  O  O77  1  0.69034000  1.00000000  0.77241000  1
  O  O78  1  0.18804200  0.99205300  0.64934200  1
  O  O79  1  0.78852900  0.00785300  0.54973000  1
  O  O80  1  0.30966000  0.00000000  1.00000000  1
  O  O81  1  0.80966000  1.00000000  0.88621000  1
  O  O82  1  0.30966000  0.00000000  0.77241000  1
  O  O83  1  0.81531300  0.99245900  0.64881100  1
  O  O84  1  0.20253300  0.00677100  0.55009300  1
