# generated using pymatgen
data_MgTiMnVZnCrFeCoCuNiSb20ClO54
_symmetry_space_group_name_H-M   'P 1'
_cell_length_a   6.63836500
_cell_length_b   9.57179600
_cell_length_c   29.42779900
_cell_angle_alpha   90.09439700
_cell_angle_beta   89.92667800
_cell_angle_gamma   89.91777400
_symmetry_Int_Tables_number   1
_chemical_formula_structural   MgTiMnVZnCrFeCoCuNiSb20ClO54
_chemical_formula_sum
'Mg1 Ti1 Mn1 V1 Zn1 Cr1 Fe1 Co1 Cu1 Ni1 Sb20 Cl1 O54'
_cell_volume   1869.86799953
_cell_formula_units_Z   1
loop_
 _symmetry_equiv_pos_site_id
 _symmetry_equiv_pos_as_xyz
  1  'x, y, z'
loop_
 _atom_site_type_symbol
 _atom_site_label
 _atom_site_symmetry_multiplicity
 _atom_site_fract_x
 _atom_site_fract_y
 _atom_site_fract_z
 _atom_site_occupancy
  Mg  Mg0  1  0.50031200  0.99977100  0.33711300  1
  Ti  Ti1  1  0.99916300  0.84116400  0.34037200  1
  Mn  Mn2  1  0.00000000  0.33232000  0.22759000  1
  V  V3  1  0.00000000  0.33232000  0.00000000  1
  Zn  Zn4  1  0.50000000  0.83232000  0.22759000  1
  Cr  Cr5  1  0.49654400  0.82642400  0.43878900  1
  Fe  Fe6  1  0.49849000  0.49995800  0.44800800  1
  Co  Co7  1  0.50000000  0.50000000  0.22759000  1
  Cu  Cu8  1  1.00000000  0.83232000  0.11379000  1
  Ni  Ni9  1  0.50668600  0.17188900  0.44487300  1
  Sb  Sb10  1  0.00000000  0.00000000  0.00000000  1
  Sb  Sb11  1  0.50000000  0.00000000  0.11379000  1
  Sb  Sb12  1  1.00000000  1.00000000  0.22759000  1
  Sb  Sb13  1  0.98912600  0.99750200  0.45533900  1
  Sb  Sb14  1  0.50000000  0.50000000  0.00000000  1
  Sb  Sb15  1  0.00000000  0.50000000  0.11379000  1
  Sb  Sb16  1  0.99824000  0.50720800  0.34034400  1
  Sb  Sb17  1  0.50000000  0.33232000  0.11379000  1
  Sb  Sb18  1  0.49913400  0.32575700  0.34098000  1
  Sb  Sb19  1  0.00263800  0.33543900  0.45821400  1
  Sb  Sb20  1  0.50000000  0.83232000  0.00000000  1
  Sb  Sb21  1  0.50000000  0.16768000  0.00000000  1
  Sb  Sb22  1  0.00000000  0.16768000  0.11379000  1
  Sb  Sb23  1  0.50000000  0.16768000  0.22759000  1
  Sb  Sb24  1  0.00014300  0.15399300  0.33962200  1
  Sb  Sb25  1  0.00000000  0.66768000  0.00000000  1
  Sb  Sb26  1  0.50000000  0.66768000  0.11379000  1
  Sb  Sb27  1  1.00000000  0.66768000  0.22759000  1
  Sb  Sb28  1  0.49867000  0.67096900  0.33285800  1
  Sb  Sb29  1  0.00216100  0.67881300  0.45936000  1
  Cl  Cl30  1  0.48875400  0.50417100  0.52163200  1
  O  O31  1  0.00000000  0.17164000  0.04494000  1
  O  O32  1  0.50000000  0.17164000  0.15874000  1
  O  O33  1  0.00019600  0.15525700  0.27065200  1
  O  O34  1  0.49968400  0.16556500  0.38115400  1
  O  O35  1  0.50000000  0.17164000  0.06885000  1
  O  O36  1  0.00000000  0.17164000  0.18264000  1
  O  O37  1  0.49972200  0.16981500  0.29514300  1
  O  O38  1  0.00014100  0.16632400  0.41056500  1
  O  O39  1  0.69747000  0.67164000  0.00000000  1
  O  O40  1  0.19747000  0.67164000  0.11379000  1
  O  O41  1  0.69747000  0.67164000  0.22759000  1
  O  O42  1  0.19478700  0.68636400  0.33965700  1
  O  O43  1  0.67510000  0.67793700  0.44984100  1
  O  O44  1  0.30253000  0.67164000  0.00000000  1
  O  O45  1  0.80253000  0.67164000  0.11379000  1
  O  O46  1  0.30253000  0.67164000  0.22759000  1
  O  O47  1  0.80284700  0.68682200  0.33955600  1
  O  O48  1  0.32033900  0.67150100  0.44640200  1
  O  O49  1  0.69747000  0.32836000  0.00000000  1
  O  O50  1  0.19747000  0.32836000  0.11379000  1
  O  O51  1  0.69747000  0.32836000  0.22759000  1
  O  O52  1  0.19176300  0.32166500  0.33894000  1
  O  O53  1  0.68118600  0.34547900  0.44617300  1
  O  O54  1  0.30253000  0.32836000  0.00000000  1
  O  O55  1  0.80253000  0.32836000  0.11379000  1
  O  O56  1  0.30253000  0.32836000  0.22759000  1
  O  O57  1  0.80711300  0.32111600  0.33903500  1
  O  O58  1  0.32038900  0.34315600  0.44478300  1
  O  O59  1  1.00000000  0.82836000  0.04494000  1
  O  O60  1  0.50000000  0.82836000  0.15874000  1
  O  O61  1  0.00021600  0.84468700  0.27066400  1
  O  O62  1  0.50004100  0.82817700  0.38134900  1
  O  O63  1  0.50000000  0.82836000  0.06885000  1
  O  O64  1  0.00000000  0.82836000  0.18264000  1
  O  O65  1  0.49953000  0.83318200  0.29553900  1
  O  O66  1  0.99700700  0.83200200  0.40993000  1
  O  O67  1  0.00000000  0.50000000  0.04332000  1
  O  O68  1  0.50000000  0.50000000  0.15711000  1
  O  O69  1  0.00049200  0.49998000  0.27169600  1
  O  O70  1  0.50187900  0.50727900  0.38065600  1
  O  O71  1  0.50000000  0.50000000  0.07048000  1
  O  O72  1  0.00000000  0.50000000  0.18427000  1
  O  O73  1  0.49956400  0.49265900  0.29569000  1
  O  O74  1  0.99630000  0.51043700  0.41867000  1
  O  O75  1  0.69034000  0.00000000  0.00000000  1
  O  O76  1  0.19034000  1.00000000  0.11379000  1
  O  O77  1  0.69034000  1.00000000  0.22759000  1
  O  O78  1  0.18947200  0.99425000  0.34206200  1
  O  O79  1  0.67698700  0.98078800  0.45033900  1
  O  O80  1  0.30966000  0.00000000  0.00000000  1
  O  O81  1  0.80966000  0.00000000  0.11379000  1
  O  O82  1  0.30966000  1.00000000  0.22759000  1
  O  O83  1  0.81005300  0.99472700  0.34197100  1
  O  O84  1  0.31783000  0.96187100  0.45420700  1
