# generated using pymatgen
data_MgTiMnVZnCrFeCoCuNiSb20ClO54
_symmetry_space_group_name_H-M   'P 1'
_cell_length_a   6.73684500
_cell_length_b   9.55132900
_cell_length_c   29.53289700
_cell_angle_alpha   90.04424000
_cell_angle_beta   89.94152900
_cell_angle_gamma   89.98989300
_symmetry_Int_Tables_number   1
_chemical_formula_structural   MgTiMnVZnCrFeCoCuNiSb20ClO54
_chemical_formula_sum
'Mg1 Ti1 Mn1 V1 Zn1 Cr1 Fe1 Co1 Cu1 Ni1 Sb20 Cl1 O54'
_cell_volume   1900.31697770
_cell_formula_units_Z   1
loop_
 _symmetry_equiv_pos_site_id
 _symmetry_equiv_pos_as_xyz
  1  'x, y, z'
loop_
 _atom_site_type_symbol
 _atom_site_label
 _atom_site_symmetry_multiplicity
 _atom_site_fract_x
 _atom_site_fract_y
 _atom_site_fract_z
 _atom_site_occupancy
  Mg  Mg0  1  0.00000000  0.66768000  0.22759000  1
  Ti  Ti1  1  1.00000000  0.83232000  0.11379000  1
  Mn  Mn2  1  0.51333600  0.82006600  0.44037200  1
  V  V3  1  0.00000000  0.66768000  0.00000000  1
  Zn  Zn4  1  0.00000000  1.00000000  0.22759000  1
  Cr  Cr5  1  0.50000000  0.83232000  0.22759000  1
  Fe  Fe6  1  0.49472900  0.50014900  0.44643000  1
  Co  Co7  1  0.04358100  0.67134300  0.43769100  1
  Cu  Cu8  1  0.49433100  0.15896300  0.44735800  1
  Ni  Ni9  1  0.49931000  0.66484000  0.33653900  1
  Sb  Sb10  1  0.00000000  0.00000000  0.00000000  1
  Sb  Sb11  1  0.50000000  1.00000000  0.11379000  1
  Sb  Sb12  1  0.49902500  0.99069300  0.33600500  1
  Sb  Sb13  1  0.00697000  0.98460200  0.45161000  1
  Sb  Sb14  1  0.50000000  0.50000000  1.00000000  1
  Sb  Sb15  1  1.00000000  0.50000000  0.11379000  1
  Sb  Sb16  1  0.50000000  0.50000000  0.22759000  1
  Sb  Sb17  1  0.99701800  0.50597600  0.33867800  1
  Sb  Sb18  1  0.00000000  0.33232000  0.00000000  1
  Sb  Sb19  1  0.50000000  0.33232000  0.11379000  1
  Sb  Sb20  1  0.00000000  0.33232000  0.22759000  1
  Sb  Sb21  1  0.49822200  0.33917400  0.34596400  1
  Sb  Sb22  1  0.98969800  0.34003100  0.45195300  1
  Sb  Sb23  1  0.50000000  0.83232000  1.00000000  1
  Sb  Sb24  1  0.99942400  0.82647000  0.33396500  1
  Sb  Sb25  1  0.50000000  0.16768000  1.00000000  1
  Sb  Sb26  1  1.00000000  0.16768000  0.11379000  1
  Sb  Sb27  1  0.50000000  0.16768000  0.22759000  1
  Sb  Sb28  1  0.99871400  0.16376600  0.33828700  1
  Sb  Sb29  1  0.50000000  0.66768000  0.11379000  1
  Cl  Cl30  1  0.49454400  0.50384200  0.51953600  1
  O  O31  1  0.00000000  0.17164000  0.04494000  1
  O  O32  1  0.50000000  0.17164000  0.15874000  1
  O  O33  1  0.00019600  0.15525700  0.27065200  1
  O  O34  1  0.49882400  0.15538500  0.37922700  1
  O  O35  1  0.50000000  0.17164000  0.06885000  1
  O  O36  1  0.00000000  0.17164000  0.18264000  1
  O  O37  1  0.49851300  0.17573200  0.29605300  1
  O  O38  1  0.99772800  0.16457800  0.40800900  1
  O  O39  1  0.69747000  0.67164000  1.00000000  1
  O  O40  1  0.19747000  0.67164000  0.11379000  1
  O  O41  1  0.69747000  0.67164000  0.22759000  1
  O  O42  1  0.19402500  0.66308900  0.33895600  1
  O  O43  1  0.68485100  0.67434500  0.44793200  1
  O  O44  1  0.30253000  0.67164000  1.00000000  1
  O  O45  1  0.80253000  0.67164000  0.11379000  1
  O  O46  1  0.30253000  0.67164000  0.22759000  1
  O  O47  1  0.80313100  0.66447400  0.33799700  1
  O  O48  1  0.31298100  0.66399100  0.44557600  1
  O  O49  1  0.69747000  0.32836000  1.00000000  1
  O  O50  1  0.19747000  0.32836000  0.11379000  1
  O  O51  1  0.69747000  0.32836000  0.22759000  1
  O  O52  1  0.18865500  0.33212500  0.33887100  1
  O  O53  1  0.67803700  0.34036700  0.44369200  1
  O  O54  1  0.30253000  0.32836000  1.00000000  1
  O  O55  1  0.80253000  0.32836000  0.11379000  1
  O  O56  1  0.30253000  0.32836000  0.22759000  1
  O  O57  1  0.80793800  0.33143500  0.33878500  1
  O  O58  1  0.31626400  0.34427800  0.44275400  1
  O  O59  1  0.00000000  0.82836000  0.04494000  1
  O  O60  1  0.50000000  0.82836000  0.15874000  1
  O  O61  1  0.00021600  0.84468700  0.27066400  1
  O  O62  1  0.49625200  0.82848400  0.37883800  1
  O  O63  1  0.50000000  0.82836000  0.06885000  1
  O  O64  1  0.00000000  0.82836000  0.18264000  1
  O  O65  1  0.49782600  0.83165600  0.29342000  1
  O  O66  1  0.99682900  0.83717600  0.40206800  1
  O  O67  1  1.00000000  0.50000000  0.04332000  1
  O  O68  1  0.50000000  0.50000000  0.15711000  1
  O  O69  1  0.00049200  0.49998000  0.27169600  1
  O  O70  1  0.50221300  0.51192900  0.38254700  1
  O  O71  1  0.50000000  0.50000000  0.07048000  1
  O  O72  1  1.00000000  0.50000000  0.18427000  1
  O  O73  1  0.49900000  0.48622100  0.29623200  1
  O  O74  1  0.99071900  0.49698100  0.40586000  1
  O  O75  1  0.69034000  1.00000000  1.00000000  1
  O  O76  1  0.19034000  1.00000000  0.11379000  1
  O  O77  1  0.69034000  1.00000000  0.22759000  1
  O  O78  1  0.19281200  0.00146400  0.34002800  1
  O  O79  1  0.68052300  0.97101700  0.44924400  1
  O  O80  1  0.30966000  1.00000000  1.00000000  1
  O  O81  1  0.80966000  1.00000000  0.11379000  1
  O  O82  1  0.30966000  1.00000000  0.22759000  1
  O  O83  1  0.80544200  0.00099000  0.33987900  1
  O  O84  1  0.31542400  0.97411100  0.44984600  1
