# generated using pymatgen
data_MgTiMnVZnCrFeCoCuNiSb20ClO54
_symmetry_space_group_name_H-M   'P 1'
_cell_length_a   6.68440300
_cell_length_b   9.50500100
_cell_length_c   29.53857100
_cell_angle_alpha   89.92736100
_cell_angle_beta   89.98539600
_cell_angle_gamma   89.99151400
_symmetry_Int_Tables_number   1
_chemical_formula_structural   MgTiMnVZnCrFeCoCuNiSb20ClO54
_chemical_formula_sum
'Mg1 Ti1 Mn1 V1 Zn1 Cr1 Fe1 Co1 Cu1 Ni1 Sb20 Cl1 O54'
_cell_volume   1876.73911610
_cell_formula_units_Z   1
loop_
 _symmetry_equiv_pos_site_id
 _symmetry_equiv_pos_as_xyz
  1  'x, y, z'
loop_
 _atom_site_type_symbol
 _atom_site_label
 _atom_site_symmetry_multiplicity
 _atom_site_fract_x
 _atom_site_fract_y
 _atom_site_fract_z
 _atom_site_occupancy
  Mg  Mg0  1  0.49969200  0.99960400  0.34065600  1
  Ti  Ti1  1  0.00000000  0.00000000  0.00000000  1
  Mn  Mn2  1  0.50000000  0.16768000  0.00000000  1
  V  V3  1  0.00000000  0.00000000  0.22759000  1
  Zn  Zn4  1  0.49716900  0.15874800  0.44749600  1
  Cr  Cr5  1  1.00000000  0.66768000  0.22759000  1
  Fe  Fe6  1  0.49852100  0.50125500  0.45057600  1
  Co  Co7  1  0.50000000  0.83232000  0.00000000  1
  Cu  Cu8  1  0.00000000  0.33232000  0.22759000  1
  Ni  Ni9  1  0.49707300  0.82659100  0.44688900  1
  Sb  Sb10  1  0.50000000  1.00000000  0.11379000  1
  Sb  Sb11  1  0.99668600  0.00108500  0.45491400  1
  Sb  Sb12  1  0.50000000  0.50000000  0.00000000  1
  Sb  Sb13  1  1.00000000  0.50000000  0.11379000  1
  Sb  Sb14  1  0.50000000  0.50000000  0.22759000  1
  Sb  Sb15  1  0.99854000  0.50163600  0.33696300  1
  Sb  Sb16  1  0.00000000  0.33232000  0.00000000  1
  Sb  Sb17  1  0.50000000  0.33232000  0.11379000  1
  Sb  Sb18  1  0.49897900  0.32419200  0.34237500  1
  Sb  Sb19  1  0.99971900  0.34010300  0.45548300  1
  Sb  Sb20  1  1.00000000  0.83232000  0.11379000  1
  Sb  Sb21  1  0.50000000  0.83232000  0.22759000  1
  Sb  Sb22  1  0.99986400  0.84215800  0.33825800  1
  Sb  Sb23  1  0.00000000  0.16768000  0.11379000  1
  Sb  Sb24  1  0.50000000  0.16768000  0.22759000  1
  Sb  Sb25  1  0.99950700  0.16004000  0.33717800  1
  Sb  Sb26  1  1.00000000  0.66768000  0.00000000  1
  Sb  Sb27  1  0.50000000  0.66768000  0.11379000  1
  Sb  Sb28  1  0.49944400  0.67455200  0.34320300  1
  Sb  Sb29  1  0.99746400  0.66761400  0.45527100  1
  Cl  Cl30  1  0.49421900  0.50734100  0.52419500  1
  O  O31  1  0.00000000  0.17164000  0.04494000  1
  O  O32  1  0.50000000  0.17164000  0.15874000  1
  O  O33  1  0.00019600  0.15525700  0.27065200  1
  O  O34  1  0.50017000  0.16540500  0.38167300  1
  O  O35  1  0.50000000  0.17164000  0.06885000  1
  O  O36  1  0.00000000  0.17164000  0.18264000  1
  O  O37  1  0.49864900  0.16920900  0.29507000  1
  O  O38  1  0.99867700  0.17030700  0.40656600  1
  O  O39  1  0.69747000  0.67164000  1.00000000  1
  O  O40  1  0.19747000  0.67164000  0.11379000  1
  O  O41  1  0.69747000  0.67164000  0.22759000  1
  O  O42  1  0.19216000  0.67340200  0.33855900  1
  O  O43  1  0.67921200  0.65984600  0.44682900  1
  O  O44  1  0.30253000  0.67164000  0.00000000  1
  O  O45  1  0.80253000  0.67164000  0.11379000  1
  O  O46  1  0.30253000  0.67164000  0.22759000  1
  O  O47  1  0.80657200  0.67392800  0.33826700  1
  O  O48  1  0.31663000  0.65896500  0.44611900  1
  O  O49  1  0.69747000  0.32836000  1.00000000  1
  O  O50  1  0.19747000  0.32836000  0.11379000  1
  O  O51  1  0.69747000  0.32836000  0.22759000  1
  O  O52  1  0.19185300  0.33067600  0.33893700  1
  O  O53  1  0.68532300  0.35123700  0.44866200  1
  O  O54  1  0.30253000  0.32836000  0.00000000  1
  O  O55  1  0.80253000  0.32836000  0.11379000  1
  O  O56  1  0.30253000  0.32836000  0.22759000  1
  O  O57  1  0.80621800  0.33000300  0.33839700  1
  O  O58  1  0.31408800  0.34932000  0.44785400  1
  O  O59  1  1.00000000  0.82836000  0.04494000  1
  O  O60  1  0.50000000  0.82836000  0.15874000  1
  O  O61  1  0.00021600  0.84468700  0.27066400  1
  O  O62  1  0.49967000  0.83398500  0.38247200  1
  O  O63  1  0.50000000  0.82836000  0.06885000  1
  O  O64  1  1.00000000  0.82836000  0.18264000  1
  O  O65  1  0.49856800  0.82871200  0.29479400  1
  O  O66  1  0.99764900  0.83175100  0.40712100  1
  O  O67  1  1.00000000  0.50000000  0.04332000  1
  O  O68  1  0.50000000  0.50000000  0.15711000  1
  O  O69  1  0.00049200  0.49998000  0.27169600  1
  O  O70  1  0.50011100  0.49892800  0.38258400  1
  O  O71  1  0.50000000  0.50000000  0.07048000  1
  O  O72  1  1.00000000  0.50000000  0.18427000  1
  O  O73  1  0.49982000  0.50126500  0.29829600  1
  O  O74  1  0.99850800  0.50432600  0.40649100  1
  O  O75  1  0.69034000  0.00000000  1.00000000  1
  O  O76  1  0.19034000  1.00000000  0.11379000  1
  O  O77  1  0.69034000  0.00000000  0.22759000  1
  O  O78  1  0.19466300  0.00008800  0.34106600  1
  O  O79  1  0.68738600  0.97916200  0.45543100  1
  O  O80  1  0.30966000  1.00000000  0.00000000  1
  O  O81  1  0.80966000  0.00000000  0.11379000  1
  O  O82  1  0.30966000  1.00000000  0.22759000  1
  O  O83  1  0.80458500  0.99992700  0.34080500  1
  O  O84  1  0.30592200  0.97738100  0.45560400  1
