# generated using pymatgen
data_MgTiMnVZnCrFeCoCuNiSb20ClO54
_symmetry_space_group_name_H-M   'P 1'
_cell_length_a   6.71059400
_cell_length_b   9.54576700
_cell_length_c   30.02130400
_cell_angle_alpha   89.92135000
_cell_angle_beta   89.97606900
_cell_angle_gamma   89.91883300
_symmetry_Int_Tables_number   1
_chemical_formula_structural   MgTiMnVZnCrFeCoCuNiSb20ClO54
_chemical_formula_sum
'Mg1 Ti1 Mn1 V1 Zn1 Cr1 Fe1 Co1 Cu1 Ni1 Sb20 Cl1 O54'
_cell_volume   1923.09378161
_cell_formula_units_Z   1
loop_
 _symmetry_equiv_pos_site_id
 _symmetry_equiv_pos_as_xyz
  1  'x, y, z'
loop_
 _atom_site_type_symbol
 _atom_site_label
 _atom_site_symmetry_multiplicity
 _atom_site_fract_x
 _atom_site_fract_y
 _atom_site_fract_z
 _atom_site_occupancy
  Mg  Mg0  1  0.00469500  0.33240700  0.43916200  1
  Ti  Ti1  1  0.50000000  0.50000000  0.22759000  1
  Mn  Mn2  1  0.50000000  0.16768000  0.22759000  1
  V  V3  1  0.00000000  0.83232000  0.11379000  1
  Zn  Zn4  1  0.50000000  0.83232000  1.00000000  1
  Cr  Cr5  1  0.49939900  0.65440700  0.33580300  1
  Fe  Fe6  1  0.49983200  0.49676300  0.43943700  1
  Co  Co7  1  0.50769700  0.19286900  0.43811600  1
  Cu  Cu8  1  0.99095100  0.99217600  0.44296100  1
  Ni  Ni9  1  0.49956600  0.33630500  0.33525100  1
  Sb  Sb10  1  0.00000000  0.00000000  0.00000000  1
  Sb  Sb11  1  0.50000000  1.00000000  0.11379000  1
  Sb  Sb12  1  0.00000000  0.00000000  0.22759000  1
  Sb  Sb13  1  0.49956800  0.00654800  0.33467600  1
  Sb  Sb14  1  0.50000000  0.50000000  0.00000000  1
  Sb  Sb15  1  0.00000000  0.50000000  0.11379000  1
  Sb  Sb16  1  0.99822100  0.49729600  0.34020000  1
  Sb  Sb17  1  1.00000000  0.33232000  0.00000000  1
  Sb  Sb18  1  0.50000000  0.33232000  0.11379000  1
  Sb  Sb19  1  1.00000000  0.33232000  0.22759000  1
  Sb  Sb20  1  0.50000000  0.83232000  0.22759000  1
  Sb  Sb21  1  0.99954100  0.82432700  0.33952900  1
  Sb  Sb22  1  0.49405100  0.83683900  0.44132100  1
  Sb  Sb23  1  0.50000000  0.16768000  0.00000000  1
  Sb  Sb24  1  1.00000000  0.16768000  0.11379000  1
  Sb  Sb25  1  0.99938500  0.17122800  0.34192200  1
  Sb  Sb26  1  0.00000000  0.66768000  0.00000000  1
  Sb  Sb27  1  0.50000000  0.66768000  0.11379000  1
  Sb  Sb28  1  0.00000000  0.66768000  0.22759000  1
  Sb  Sb29  1  0.99835600  0.66878600  0.45064700  1
  Cl  Cl30  1  0.49426900  0.52194400  0.51366900  1
  O  O31  1  1.00000000  0.17164000  0.04494000  1
  O  O32  1  0.50000000  0.17164000  0.15874000  1
  O  O33  1  0.00019600  0.15525700  0.27065200  1
  O  O34  1  0.50071300  0.16587100  0.37647300  1
  O  O35  1  0.50000000  0.17164000  0.06885000  1
  O  O36  1  1.00000000  0.17164000  0.18264000  1
  O  O37  1  0.49920000  0.16481200  0.29181200  1
  O  O38  1  0.99637300  0.16183400  0.40582500  1
  O  O39  1  0.69747000  0.67164000  0.00000000  1
  O  O40  1  0.19747000  0.67164000  0.11379000  1
  O  O41  1  0.69747000  0.67164000  0.22759000  1
  O  O42  1  0.19630200  0.66035000  0.33370500  1
  O  O43  1  0.68050700  0.66284900  0.43895200  1
  O  O44  1  0.30253000  0.67164000  0.00000000  1
  O  O45  1  0.80253000  0.67164000  0.11379000  1
  O  O46  1  0.30253000  0.67164000  0.22759000  1
  O  O47  1  0.80185100  0.66081100  0.33294300  1
  O  O48  1  0.31387100  0.66020100  0.43762700  1
  O  O49  1  0.69747000  0.32836000  0.00000000  1
  O  O50  1  0.19747000  0.32836000  0.11379000  1
  O  O51  1  0.69747000  0.32836000  0.22759000  1
  O  O52  1  0.19338800  0.33597800  0.33635500  1
  O  O53  1  0.68836900  0.35048100  0.44490200  1
  O  O54  1  0.30253000  0.32836000  0.00000000  1
  O  O55  1  0.80253000  0.32836000  0.11379000  1
  O  O56  1  0.30253000  0.32836000  0.22759000  1
  O  O57  1  0.80486700  0.33522400  0.33522800  1
  O  O58  1  0.31731400  0.34724000  0.44454700  1
  O  O59  1  0.00000000  0.82836000  0.04494000  1
  O  O60  1  0.50000000  0.82836000  0.15874000  1
  O  O61  1  0.00021600  0.84468700  0.27066400  1
  O  O62  1  0.49987700  0.83326400  0.37428500  1
  O  O63  1  0.50000000  0.82836000  0.06885000  1
  O  O64  1  0.00000000  0.82836000  0.18264000  1
  O  O65  1  0.49833200  0.83140300  0.29410500  1
  O  O66  1  0.99254700  0.82090000  0.40447000  1
  O  O67  1  0.00000000  0.50000000  0.04332000  1
  O  O68  1  0.50000000  0.50000000  0.15711000  1
  O  O69  1  0.00049200  0.49998000  0.27169600  1
  O  O70  1  0.50106600  0.49894800  0.37580300  1
  O  O71  1  0.50000000  0.50000000  0.07048000  1
  O  O72  1  0.00000000  0.50000000  0.18427000  1
  O  O73  1  0.49927100  0.51265600  0.28830400  1
  O  O74  1  0.99596200  0.50934500  0.40575600  1
  O  O75  1  0.69034000  0.00000000  1.00000000  1
  O  O76  1  0.19034000  1.00000000  0.11379000  1
  O  O77  1  0.69034000  0.00000000  0.22759000  1
  O  O78  1  0.18968500  0.99631900  0.33659600  1
  O  O79  1  0.69365700  0.99138200  0.44947400  1
  O  O80  1  0.30966000  1.00000000  1.00000000  1
  O  O81  1  0.80966000  0.00000000  0.11379000  1
  O  O82  1  0.30966000  1.00000000  0.22759000  1
  O  O83  1  0.80956500  0.99620800  0.33630100  1
  O  O84  1  0.28576600  0.98155200  0.44985100  1
