# generated using pymatgen
data_MgTiMnVZnCrFeCoCuNiSb20ClO54
_symmetry_space_group_name_H-M   'P 1'
_cell_length_a   6.68454900
_cell_length_b   9.55721000
_cell_length_c   29.00279800
_cell_angle_alpha   89.83520800
_cell_angle_beta   89.96808500
_cell_angle_gamma   89.99402900
_symmetry_Int_Tables_number   1
_chemical_formula_structural   MgTiMnVZnCrFeCoCuNiSb20ClO54
_chemical_formula_sum
'Mg1 Ti1 Mn1 V1 Zn1 Cr1 Fe1 Co1 Cu1 Ni1 Sb20 Cl1 O54'
_cell_volume   1852.85430899
_cell_formula_units_Z   1
loop_
 _symmetry_equiv_pos_site_id
 _symmetry_equiv_pos_as_xyz
  1  'x, y, z'
loop_
 _atom_site_type_symbol
 _atom_site_label
 _atom_site_symmetry_multiplicity
 _atom_site_fract_x
 _atom_site_fract_y
 _atom_site_fract_z
 _atom_site_occupancy
  Mg  Mg0  1  0.99944200  0.50447500  0.34346600  1
  Ti  Ti1  1  0.50000000  0.33232000  0.11379000  1
  Mn  Mn2  1  0.50110100  0.17764900  0.44546500  1
  V  V3  1  0.50000000  0.50000000  0.00000000  1
  Zn  Zn4  1  0.00000000  0.00000000  0.00000000  1
  Cr  Cr5  1  0.00000000  0.16768000  0.11379000  1
  Fe  Fe6  1  0.50132100  0.48807900  0.44700100  1
  Co  Co7  1  0.49948000  0.67469300  0.34155400  1
  Cu  Cu8  1  0.50005000  0.99506100  0.34100200  1
  Ni  Ni9  1  0.50000000  0.66768000  0.11379000  1
  Sb  Sb10  1  0.50000000  0.00000000  0.11379000  1
  Sb  Sb11  1  0.00000000  0.00000000  0.22759000  1
  Sb  Sb12  1  0.00162700  0.00591600  0.46433300  1
  Sb  Sb13  1  0.00000000  0.50000000  0.11379000  1
  Sb  Sb14  1  0.50000000  0.50000000  0.22759000  1
  Sb  Sb15  1  0.00000000  0.66768000  0.00000000  1
  Sb  Sb16  1  0.00000000  0.66768000  0.22759000  1
  Sb  Sb17  1  0.00026200  0.65523000  0.45944000  1
  Sb  Sb18  1  0.50000000  0.16768000  0.00000000  1
  Sb  Sb19  1  0.50000000  0.16768000  0.22759000  1
  Sb  Sb20  1  0.00035400  0.16263400  0.34431900  1
  Sb  Sb21  1  0.50000000  0.83232000  0.00000000  1
  Sb  Sb22  1  0.00000000  0.83232000  0.11379000  1
  Sb  Sb23  1  0.50000000  0.83232000  0.22759000  1
  Sb  Sb24  1  0.00000800  0.82737600  0.34526100  1
  Sb  Sb25  1  0.50155700  0.81591400  0.45158200  1
  Sb  Sb26  1  0.00000000  0.33232000  0.00000000  1
  Sb  Sb27  1  0.00000000  0.33232000  0.22759000  1
  Sb  Sb28  1  0.49990900  0.33105200  0.34242500  1
  Sb  Sb29  1  0.00048100  0.33374200  0.45831500  1
  Cl  Cl30  1  0.50832000  0.49211000  0.52334900  1
  O  O31  1  0.00000000  0.82836000  0.04494000  1
  O  O32  1  0.50000000  0.82836000  0.15874000  1
  O  O33  1  0.99980400  0.84474300  0.27065200  1
  O  O34  1  0.49797800  0.83582900  0.38410300  1
  O  O35  1  0.50000000  0.82836000  0.06885000  1
  O  O36  1  0.00000000  0.82836000  0.18264000  1
  O  O37  1  0.50085600  0.83412500  0.29434700  1
  O  O38  1  0.00099500  0.83508700  0.41759600  1
  O  O39  1  0.30253000  0.32836000  0.00000000  1
  O  O40  1  0.80253000  0.32836000  0.11379000  1
  O  O41  1  0.30253000  0.32836000  0.22759000  1
  O  O42  1  0.80773600  0.32368200  0.33904400  1
  O  O43  1  0.32049100  0.33288900  0.44722200  1
  O  O44  1  0.69747000  0.32836000  0.00000000  1
  O  O45  1  0.19747000  0.32836000  0.11379000  1
  O  O46  1  0.69747000  0.32836000  0.22759000  1
  O  O47  1  0.19219600  0.32383500  0.33898500  1
  O  O48  1  0.68161000  0.33271200  0.44619300  1
  O  O49  1  0.30253000  0.67164000  0.00000000  1
  O  O50  1  0.80253000  0.67164000  0.11379000  1
  O  O51  1  0.30253000  0.67164000  0.22759000  1
  O  O52  1  0.80041000  0.67540900  0.34174900  1
  O  O53  1  0.31192800  0.64286000  0.44643900  1
  O  O54  1  0.69747000  0.67164000  0.00000000  1
  O  O55  1  0.19747000  0.67164000  0.11379000  1
  O  O56  1  0.69747000  0.67164000  0.22759000  1
  O  O57  1  0.19835900  0.67472400  0.34123400  1
  O  O58  1  0.69042300  0.64283500  0.44517300  1
  O  O59  1  0.00000000  0.17164000  0.04494000  1
  O  O60  1  0.50000000  0.17164000  0.15874000  1
  O  O61  1  0.99978400  0.15531300  0.27066400  1
  O  O62  1  0.49834300  0.16339700  0.38347100  1
  O  O63  1  0.50000000  0.17164000  0.06885000  1
  O  O64  1  0.00000000  0.17164000  0.18264000  1
  O  O65  1  0.50027100  0.16830700  0.29582500  1
  O  O66  1  0.00228000  0.16805800  0.41384100  1
  O  O67  1  0.00000000  0.50000000  0.04332000  1
  O  O68  1  0.50000000  0.50000000  0.15711000  1
  O  O69  1  0.99950800  0.50002000  0.27169600  1
  O  O70  1  0.49885800  0.49821200  0.38291500  1
  O  O71  1  0.50000000  0.50000000  0.07048000  1
  O  O72  1  0.00000000  0.50000000  0.18427000  1
  O  O73  1  0.50003600  0.49672500  0.29673500  1
  O  O74  1  0.00264100  0.49420600  0.41446100  1
  O  O75  1  0.30966000  0.00000000  1.00000000  1
  O  O76  1  0.80966000  0.00000000  0.11379000  1
  O  O77  1  0.30966000  0.00000000  0.22759000  1
  O  O78  1  0.81005600  0.99851800  0.34298200  1
  O  O79  1  0.30670100  0.04545400  0.45898600  1
  O  O80  1  0.69034000  0.00000000  1.00000000  1
  O  O81  1  0.19034000  0.00000000  0.11379000  1
  O  O82  1  0.69034000  0.00000000  0.22759000  1
  O  O83  1  0.19040900  0.99805000  0.34239700  1
  O  O84  1  0.69705400  0.04626000  0.45847400  1
