# generated using pymatgen
data_MgTiMnVZnCrFeCoCuNiSb20ClO54
_symmetry_space_group_name_H-M   'P 1'
_cell_length_a   6.66779800
_cell_length_b   9.56723400
_cell_length_c   29.32827800
_cell_angle_alpha   89.94048800
_cell_angle_beta   89.99646900
_cell_angle_gamma   89.99268000
_symmetry_Int_Tables_number   1
_chemical_formula_structural   MgTiMnVZnCrFeCoCuNiSb20ClO54
_chemical_formula_sum
'Mg1 Ti1 Mn1 V1 Zn1 Cr1 Fe1 Co1 Cu1 Ni1 Sb20 Cl1 O54'
_cell_volume   1870.91973630
_cell_formula_units_Z   1
loop_
 _symmetry_equiv_pos_site_id
 _symmetry_equiv_pos_as_xyz
  1  'x, y, z'
loop_
 _atom_site_type_symbol
 _atom_site_label
 _atom_site_symmetry_multiplicity
 _atom_site_fract_x
 _atom_site_fract_y
 _atom_site_fract_z
 _atom_site_occupancy
  Mg  Mg0  1  0.99949300  0.17379300  0.33679700  1
  Ti  Ti1  1  0.99855600  0.83153600  0.33448400  1
  Mn  Mn2  1  0.49983800  0.33483200  0.34172000  1
  V  V3  1  1.00000000  0.00000000  0.22759000  1
  Zn  Zn4  1  0.50000000  0.50000000  0.00000000  1
  Cr  Cr5  1  0.50000000  0.83232000  0.22759000  1
  Fe  Fe6  1  0.50224600  0.49859100  0.44710400  1
  Co  Co7  1  0.00270200  0.33548100  0.44540200  1
  Cu  Cu8  1  0.50000000  0.66768000  0.11379000  1
  Ni  Ni9  1  0.00000000  0.66768000  0.00000000  1
  Sb  Sb10  1  0.00000000  0.00000000  0.00000000  1
  Sb  Sb11  1  0.50000000  0.00000000  0.11379000  1
  Sb  Sb12  1  0.49920000  0.00019800  0.34387000  1
  Sb  Sb13  1  0.00292100  0.99523500  0.42414300  1
  Sb  Sb14  1  1.00000000  0.50000000  0.11379000  1
  Sb  Sb15  1  0.50000000  0.50000000  0.22759000  1
  Sb  Sb16  1  0.00022000  0.49096600  0.34189700  1
  Sb  Sb17  1  1.00000000  0.66768000  0.22759000  1
  Sb  Sb18  1  0.49948900  0.66296700  0.34266100  1
  Sb  Sb19  1  0.00072400  0.65334100  0.45524700  1
  Sb  Sb20  1  0.50000000  0.16768000  0.00000000  1
  Sb  Sb21  1  1.00000000  0.16768000  0.11379000  1
  Sb  Sb22  1  0.50000000  0.16768000  0.22759000  1
  Sb  Sb23  1  0.50260100  0.19087000  0.45786500  1
  Sb  Sb24  1  0.50000000  0.83232000  0.00000000  1
  Sb  Sb25  1  1.00000000  0.83232000  0.11379000  1
  Sb  Sb26  1  0.50214500  0.81232600  0.46105300  1
  Sb  Sb27  1  0.00000000  0.33232000  0.00000000  1
  Sb  Sb28  1  0.50000000  0.33232000  0.11379000  1
  Sb  Sb29  1  1.00000000  0.33232000  0.22759000  1
  Cl  Cl30  1  0.50906000  0.52537600  0.52202300  1
  O  O31  1  1.00000000  0.82836000  0.04494000  1
  O  O32  1  0.50000000  0.82836000  0.15874000  1
  O  O33  1  0.99980400  0.84474300  0.27065200  1
  O  O34  1  0.49879700  0.83479100  0.38799800  1
  O  O35  1  0.50000000  0.82836000  0.06885000  1
  O  O36  1  1.00000000  0.82836000  0.18264000  1
  O  O37  1  0.49945400  0.83382600  0.29828200  1
  O  O38  1  0.00266600  0.79829400  0.40432900  1
  O  O39  1  0.30253000  0.32836000  0.00000000  1
  O  O40  1  0.80253000  0.32836000  0.11379000  1
  O  O41  1  0.30253000  0.32836000  0.22759000  1
  O  O42  1  0.79561100  0.34187500  0.33712600  1
  O  O43  1  0.29596800  0.35017000  0.45201500  1
  O  O44  1  0.69747000  0.32836000  0.00000000  1
  O  O45  1  0.19747000  0.32836000  0.11379000  1
  O  O46  1  0.69747000  0.32836000  0.22759000  1
  O  O47  1  0.20413400  0.34164200  0.33672400  1
  O  O48  1  0.70892800  0.35012800  0.45101900  1
  O  O49  1  0.30253000  0.67164000  0.00000000  1
  O  O50  1  0.80253000  0.67164000  0.11379000  1
  O  O51  1  0.30253000  0.67164000  0.22759000  1
  O  O52  1  0.81215100  0.66501100  0.33600100  1
  O  O53  1  0.31549600  0.64872500  0.44174500  1
  O  O54  1  0.69747000  0.67164000  0.00000000  1
  O  O55  1  0.19747000  0.67164000  0.11379000  1
  O  O56  1  0.69747000  0.67164000  0.22759000  1
  O  O57  1  0.18745900  0.66471300  0.33543400  1
  O  O58  1  0.68808000  0.64908200  0.44045700  1
  O  O59  1  1.00000000  0.17164000  0.04494000  1
  O  O60  1  0.50000000  0.17164000  0.15874000  1
  O  O61  1  0.99978400  0.15531300  0.27066400  1
  O  O62  1  0.49944500  0.16149300  0.38810300  1
  O  O63  1  0.50000000  0.17164000  0.06885000  1
  O  O64  1  1.00000000  0.17164000  0.18264000  1
  O  O65  1  0.49989400  0.16563700  0.29845600  1
  O  O66  1  0.00028700  0.18530700  0.40423800  1
  O  O67  1  1.00000000  0.50000000  0.04332000  1
  O  O68  1  0.50000000  0.50000000  0.15711000  1
  O  O69  1  0.99950800  0.50002000  0.27169600  1
  O  O70  1  0.49798200  0.48968600  0.38289300  1
  O  O71  1  0.50000000  0.50000000  0.07048000  1
  O  O72  1  1.00000000  0.50000000  0.18427000  1
  O  O73  1  0.50149500  0.50347200  0.29502500  1
  O  O74  1  0.00368500  0.50351100  0.40850400  1
  O  O75  1  0.30966000  0.00000000  0.00000000  1
  O  O76  1  0.80966000  0.00000000  0.11379000  1
  O  O77  1  0.30966000  0.00000000  0.22759000  1
  O  O78  1  0.81033900  0.98445100  0.34817200  1
  O  O79  1  0.24835100  0.98132500  0.45807900  1
  O  O80  1  0.69034000  0.00000000  0.00000000  1
  O  O81  1  0.19034000  0.00000000  0.11379000  1
  O  O82  1  0.69034000  0.00000000  0.22759000  1
  O  O83  1  0.18768700  0.98536800  0.34852300  1
  O  O84  1  0.75658300  0.97991200  0.45763900  1
