# generated using pymatgen
data_MgTiMnVZnCrFeCoCuNiSb20ClO54
_symmetry_space_group_name_H-M   'P 1'
_cell_length_a   6.68306400
_cell_length_b   9.47229800
_cell_length_c   29.07994100
_cell_angle_alpha   89.70954200
_cell_angle_beta   89.98614300
_cell_angle_gamma   89.99583700
_symmetry_Int_Tables_number   1
_chemical_formula_structural   MgTiMnVZnCrFeCoCuNiSb20ClO54
_chemical_formula_sum
'Mg1 Ti1 Mn1 V1 Zn1 Cr1 Fe1 Co1 Cu1 Ni1 Sb20 Cl1 O54'
_cell_volume   1840.85210894
_cell_formula_units_Z   1
loop_
 _symmetry_equiv_pos_site_id
 _symmetry_equiv_pos_as_xyz
  1  'x, y, z'
loop_
 _atom_site_type_symbol
 _atom_site_label
 _atom_site_symmetry_multiplicity
 _atom_site_fract_x
 _atom_site_fract_y
 _atom_site_fract_z
 _atom_site_occupancy
  Mg  Mg0  1  0.49968800  0.00468900  0.34102600  1
  Ti  Ti1  1  0.00000000  0.50000000  0.11379000  1
  Mn  Mn2  1  0.50000000  0.50000000  1.00000000  1
  V  V3  1  0.00114600  0.66236900  0.43991900  1
  Zn  Zn4  1  0.50000000  0.66768000  0.11379000  1
  Cr  Cr5  1  0.49939200  0.31836700  0.33911500  1
  Fe  Fe6  1  0.50084700  0.49707200  0.44976300  1
  Co  Co7  1  1.00000000  0.66768000  1.00000000  1
  Cu  Cu8  1  0.00000000  0.66768000  0.22759000  1
  Ni  Ni9  1  0.50000000  0.16768000  0.22759000  1
  Sb  Sb10  1  0.00000000  0.00000000  0.00000000  1
  Sb  Sb11  1  0.50000000  0.00000000  0.11379000  1
  Sb  Sb12  1  0.00000000  0.00000000  0.22759000  1
  Sb  Sb13  1  0.99946300  0.00739100  0.46988400  1
  Sb  Sb14  1  0.50000000  0.50000000  0.22759000  1
  Sb  Sb15  1  0.99960400  0.49264800  0.33858700  1
  Sb  Sb16  1  0.49951400  0.66131600  0.34268100  1
  Sb  Sb17  1  0.50000000  0.16768000  1.00000000  1
  Sb  Sb18  1  0.00000000  0.16768000  0.11379000  1
  Sb  Sb19  1  0.99997600  0.16513300  0.34674300  1
  Sb  Sb20  1  0.50066900  0.17619400  0.45139600  1
  Sb  Sb21  1  0.50000000  0.83232000  1.00000000  1
  Sb  Sb22  1  0.00000000  0.83232000  0.11379000  1
  Sb  Sb23  1  0.50000000  0.83232000  0.22759000  1
  Sb  Sb24  1  0.99982200  0.84318600  0.33962900  1
  Sb  Sb25  1  0.50032800  0.81570200  0.45854600  1
  Sb  Sb26  1  1.00000000  0.33232000  1.00000000  1
  Sb  Sb27  1  0.50000000  0.33232000  0.11379000  1
  Sb  Sb28  1  0.00000000  0.33232000  0.22759000  1
  Sb  Sb29  1  0.99944100  0.34566100  0.46432400  1
  Cl  Cl30  1  0.50460000  0.49983100  0.52544400  1
  O  O31  1  0.00000000  0.82836000  0.04494000  1
  O  O32  1  0.50000000  0.82836000  0.15874000  1
  O  O33  1  0.99980400  0.84474300  0.27065200  1
  O  O34  1  0.49888600  0.81703600  0.38872800  1
  O  O35  1  0.50000000  0.82836000  0.06885000  1
  O  O36  1  0.00000000  0.82836000  0.18264000  1
  O  O37  1  0.49966900  0.82621400  0.29875100  1
  O  O38  1  0.00102900  0.83108600  0.41071900  1
  O  O39  1  0.30253000  0.32836000  1.00000000  1
  O  O40  1  0.80253000  0.32836000  0.11379000  1
  O  O41  1  0.30253000  0.32836000  0.22759000  1
  O  O42  1  0.80038800  0.32804300  0.34040600  1
  O  O43  1  0.30855600  0.35509700  0.44925900  1
  O  O44  1  0.69747000  0.32836000  1.00000000  1
  O  O45  1  0.19747000  0.32836000  0.11379000  1
  O  O46  1  0.69747000  0.32836000  0.22759000  1
  O  O47  1  0.19867500  0.32850800  0.34006400  1
  O  O48  1  0.69229800  0.35444200  0.44775000  1
  O  O49  1  0.30253000  0.67164000  1.00000000  1
  O  O50  1  0.80253000  0.67164000  0.11379000  1
  O  O51  1  0.30253000  0.67164000  0.22759000  1
  O  O52  1  0.80811000  0.66485900  0.34062900  1
  O  O53  1  0.26508900  0.63897700  0.45205700  1
  O  O54  1  0.69747000  0.67164000  1.00000000  1
  O  O55  1  0.19747000  0.67164000  0.11379000  1
  O  O56  1  0.69747000  0.67164000  0.22759000  1
  O  O57  1  0.19078200  0.66477900  0.34048000  1
  O  O58  1  0.73779500  0.63867600  0.45179700  1
  O  O59  1  0.00000000  0.17164000  0.04494000  1
  O  O60  1  0.50000000  0.17164000  0.15874000  1
  O  O61  1  0.99978400  0.15531300  0.27066400  1
  O  O62  1  0.49780300  0.17002000  0.38437000  1
  O  O63  1  0.50000000  0.17164000  0.06885000  1
  O  O64  1  0.00000000  0.17164000  0.18264000  1
  O  O65  1  0.49961400  0.18039700  0.29753800  1
  O  O66  1  0.00230500  0.17404800  0.41704700  1
  O  O67  1  0.00000000  0.50000000  0.04332000  1
  O  O68  1  0.50000000  0.50000000  0.15711000  1
  O  O69  1  0.99950800  0.50002000  0.27169600  1
  O  O70  1  0.49939000  0.49222000  0.38355100  1
  O  O71  1  0.50000000  0.50000000  0.07048000  1
  O  O72  1  0.00000000  0.50000000  0.18427000  1
  O  O73  1  0.49982400  0.49363000  0.29759300  1
  O  O74  1  0.00236000  0.49457400  0.40716400  1
  O  O75  1  0.30966000  0.00000000  0.00000000  1
  O  O76  1  0.80966000  0.00000000  0.11379000  1
  O  O77  1  0.30966000  0.00000000  0.22759000  1
  O  O78  1  0.80520600  0.00506600  0.34353100  1
  O  O79  1  0.30023800  0.99324700  0.45360600  1
  O  O80  1  0.69034000  0.00000000  0.00000000  1
  O  O81  1  0.19034000  0.00000000  0.11379000  1
  O  O82  1  0.69034000  0.00000000  0.22759000  1
  O  O83  1  0.19450700  0.00479400  0.34331700  1
  O  O84  1  0.70063100  0.99371400  0.45216000  1
