# generated using pymatgen
data_MgTiMnVZnCrFeCoCuNiSb20ClO54
_symmetry_space_group_name_H-M   'P 1'
_cell_length_a   6.69400100
_cell_length_b   9.51840500
_cell_length_c   29.13305400
_cell_angle_alpha   89.76251900
_cell_angle_beta   89.98636600
_cell_angle_gamma   89.99783500
_symmetry_Int_Tables_number   1
_chemical_formula_structural   MgTiMnVZnCrFeCoCuNiSb20ClO54
_chemical_formula_sum
'Mg1 Ti1 Mn1 V1 Zn1 Cr1 Fe1 Co1 Cu1 Ni1 Sb20 Cl1 O54'
_cell_volume   1856.23186345
_cell_formula_units_Z   1
loop_
 _symmetry_equiv_pos_site_id
 _symmetry_equiv_pos_as_xyz
  1  'x, y, z'
loop_
 _atom_site_type_symbol
 _atom_site_label
 _atom_site_symmetry_multiplicity
 _atom_site_fract_x
 _atom_site_fract_y
 _atom_site_fract_z
 _atom_site_occupancy
  Mg  Mg0  1  0.50000000  0.00000000  0.11379000  1
  Ti  Ti1  1  0.50003200  0.33746300  0.33788200  1
  Mn  Mn2  1  0.99948600  0.49818500  0.33910500  1
  V  V3  1  0.50000000  0.83232000  1.00000000  1
  Zn  Zn4  1  0.99980300  0.00576500  0.44350600  1
  Cr  Cr5  1  0.00000000  0.00000000  0.22759000  1
  Fe  Fe6  1  0.49936200  0.48566300  0.45274400  1
  Co  Co7  1  0.50000000  0.50000000  1.00000000  1
  Cu  Cu8  1  0.00013700  0.33960300  0.44785400  1
  Ni  Ni9  1  0.50000000  0.66768000  0.11379000  1
  Sb  Sb10  1  0.00000000  0.00000000  0.00000000  1
  Sb  Sb11  1  0.49995100  0.00129000  0.34127500  1
  Sb  Sb12  1  0.00000000  0.50000000  0.11379000  1
  Sb  Sb13  1  0.50000000  0.50000000  0.22759000  1
  Sb  Sb14  1  0.00000000  0.33232000  0.00000000  1
  Sb  Sb15  1  0.50000000  0.33232000  0.11379000  1
  Sb  Sb16  1  0.00000000  0.33232000  0.22759000  1
  Sb  Sb17  1  0.00000000  0.83232000  0.11379000  1
  Sb  Sb18  1  0.50000000  0.83232000  0.22759000  1
  Sb  Sb19  1  0.99968400  0.81700000  0.34281100  1
  Sb  Sb20  1  0.49986600  0.82773200  0.46393000  1
  Sb  Sb21  1  0.50000000  0.16768000  1.00000000  1
  Sb  Sb22  1  0.00000000  0.16768000  0.11379000  1
  Sb  Sb23  1  0.50000000  0.16768000  0.22759000  1
  Sb  Sb24  1  0.99948900  0.17689200  0.34166100  1
  Sb  Sb25  1  0.49996300  0.17461900  0.45315500  1
  Sb  Sb26  1  1.00000000  0.66768000  0.00000000  1
  Sb  Sb27  1  0.00000000  0.66768000  0.22759000  1
  Sb  Sb28  1  0.49975700  0.65133200  0.36403600  1
  Sb  Sb29  1  0.99952600  0.63209100  0.45128300  1
  Cl  Cl30  1  0.49736900  0.54593400  0.52459800  1
  O  O31  1  0.00000000  0.17164000  0.04494000  1
  O  O32  1  0.50000000  0.17164000  0.15874000  1
  O  O33  1  0.00019600  0.15525700  0.27065200  1
  O  O34  1  0.50095800  0.16814800  0.38356000  1
  O  O35  1  0.50000000  0.17164000  0.06885000  1
  O  O36  1  0.00000000  0.17164000  0.18264000  1
  O  O37  1  0.49944800  0.16714200  0.29654100  1
  O  O38  1  0.99428900  0.17354500  0.40766800  1
  O  O39  1  0.69747000  0.67164000  0.00000000  1
  O  O40  1  0.19747000  0.67164000  0.11379000  1
  O  O41  1  0.69747000  0.67164000  0.22759000  1
  O  O42  1  0.18483600  0.64154500  0.33674800  1
  O  O43  1  0.67885100  0.64459500  0.43580400  1
  O  O44  1  0.30253000  0.67164000  1.00000000  1
  O  O45  1  0.80253000  0.67164000  0.11379000  1
  O  O46  1  0.30253000  0.67164000  0.22759000  1
  O  O47  1  0.81441300  0.64185600  0.33653500  1
  O  O48  1  0.32027200  0.64390400  0.43553200  1
  O  O49  1  0.69747000  0.32836000  0.00000000  1
  O  O50  1  0.19747000  0.32836000  0.11379000  1
  O  O51  1  0.69747000  0.32836000  0.22759000  1
  O  O52  1  0.19467600  0.33399400  0.33455700  1
  O  O53  1  0.69177300  0.34150200  0.46040100  1
  O  O54  1  0.30253000  0.32836000  1.00000000  1
  O  O55  1  0.80253000  0.32836000  0.11379000  1
  O  O56  1  0.30253000  0.32836000  0.22759000  1
  O  O57  1  0.80471100  0.33396500  0.33412200  1
  O  O58  1  0.30679100  0.34069200  0.45993300  1
  O  O59  1  0.00000000  0.82836000  0.04494000  1
  O  O60  1  0.50000000  0.82836000  0.15874000  1
  O  O61  1  0.00021600  0.84468700  0.27066400  1
  O  O62  1  0.50127100  0.86646000  0.39302200  1
  O  O63  1  0.50000000  0.82836000  0.06885000  1
  O  O64  1  0.00000000  0.82836000  0.18264000  1
  O  O65  1  0.49911400  0.83973300  0.29735800  1
  O  O66  1  0.99981000  0.81745600  0.41498600  1
  O  O67  1  0.00000000  0.50000000  0.04332000  1
  O  O68  1  0.50000000  0.50000000  0.15711000  1
  O  O69  1  0.00049200  0.49998000  0.27169600  1
  O  O70  1  0.50027500  0.44466500  0.38931200  1
  O  O71  1  0.50000000  0.50000000  0.07048000  1
  O  O72  1  0.00000000  0.50000000  0.18427000  1
  O  O73  1  0.49931000  0.48683500  0.29763700  1
  O  O74  1  0.99687100  0.49250800  0.40104100  1
  O  O75  1  0.69034000  1.00000000  0.00000000  1
  O  O76  1  0.19034000  0.00000000  0.11379000  1
  O  O77  1  0.69034000  1.00000000  0.22759000  1
  O  O78  1  0.19581900  0.00493200  0.34089300  1
  O  O79  1  0.70252200  0.01501900  0.46281500  1
  O  O80  1  0.30966000  0.00000000  1.00000000  1
  O  O81  1  0.80966000  1.00000000  0.11379000  1
  O  O82  1  0.30966000  0.00000000  0.22759000  1
  O  O83  1  0.80373900  0.00449800  0.34007500  1
  O  O84  1  0.29665200  0.01553500  0.46238100  1
