# generated using pymatgen
data_MgTiMnVZnCrFeCoCuNiSb20ClO54
_symmetry_space_group_name_H-M   'P 1'
_cell_length_a   6.62069900
_cell_length_b   9.46690700
_cell_length_c   29.02014900
_cell_angle_alpha   90.14180700
_cell_angle_beta   89.97942600
_cell_angle_gamma   89.98528200
_symmetry_Int_Tables_number   1
_chemical_formula_structural   MgTiMnVZnCrFeCoCuNiSb20ClO54
_chemical_formula_sum
'Mg1 Ti1 Mn1 V1 Zn1 Cr1 Fe1 Co1 Cu1 Ni1 Sb20 Cl1 O54'
_cell_volume   1818.90585065
_cell_formula_units_Z   1
loop_
 _symmetry_equiv_pos_site_id
 _symmetry_equiv_pos_as_xyz
  1  'x, y, z'
loop_
 _atom_site_type_symbol
 _atom_site_label
 _atom_site_symmetry_multiplicity
 _atom_site_fract_x
 _atom_site_fract_y
 _atom_site_fract_z
 _atom_site_occupancy
  Mg  Mg0  1  0.50000000  0.16768000  1.00000000  1
  Ti  Ti1  1  1.00000000  0.66768000  0.00000000  1
  Mn  Mn2  1  0.50000000  1.00000000  0.88621000  1
  V  V3  1  0.50000000  0.50000000  0.77241000  1
  Zn  Zn4  1  0.49938278  0.17831255  0.54637387  1
  Cr  Cr5  1  0.50000000  0.66768000  0.88621000  1
  Fe  Fe6  1  0.49794663  0.49691696  0.53574190  1
  Co  Co7  1  0.50000000  0.83232000  1.00000000  1
  Cu  Cu8  1  0.50000000  0.50000000  1.00000000  1
  Ni  Ni9  1  0.00000000  1.00000000  0.77241000  1
  Sb  Sb10  1  0.00000000  0.00000000  0.00000000  1
  Sb  Sb11  1  0.49862272  0.99980069  0.64761676  1
  Sb  Sb12  1  0.99914765  0.99553313  0.53625455  1
  Sb  Sb13  1  1.00000000  0.50000000  0.88621000  1
  Sb  Sb14  1  0.99876728  0.49130508  0.64637432  1
  Sb  Sb15  1  0.00000000  0.66768000  0.77241000  1
  Sb  Sb16  1  0.49942632  0.66528829  0.65749538  1
  Sb  Sb17  1  0.00091365  0.66803635  0.53313364  1
  Sb  Sb18  1  1.00000000  0.16768000  0.88621000  1
  Sb  Sb19  1  0.50000000  0.16768000  0.77241000  1
  Sb  Sb20  1  0.99762927  0.16725876  0.65773859  1
  Sb  Sb21  1  1.00000000  0.83232000  0.88621000  1
  Sb  Sb22  1  0.50000000  0.83232000  0.77241000  1
  Sb  Sb23  1  0.99919190  0.82872950  0.65942433  1
  Sb  Sb24  1  0.49766802  0.82967976  0.53184205  1
  Sb  Sb25  1  0.00000000  0.33232000  0.00000000  1
  Sb  Sb26  1  0.50000000  0.33232000  0.88621000  1
  Sb  Sb27  1  1.00000000  0.33232000  0.77241000  1
  Sb  Sb28  1  0.50045377  0.33851333  0.66307083  1
  Sb  Sb29  1  0.99904576  0.33687416  0.51896447  1
  Cl  Cl30  1  0.48665365  0.55467975  0.45846662  1
  O  O31  1  1.00000000  0.82836000  0.95506000  1
  O  O32  1  0.50000000  0.82836000  0.84126000  1
  O  O33  1  0.00019600  0.84474300  0.72934800  1
  O  O34  1  0.50091089  0.81657002  0.61026102  1
  O  O35  1  0.50000000  0.82836000  0.93115000  1
  O  O36  1  1.00000000  0.82836000  0.81736000  1
  O  O37  1  0.49897531  0.83190270  0.70173231  1
  O  O38  1  0.99935035  0.82145431  0.58784361  1
  O  O39  1  0.69747000  0.32836000  1.00000000  1
  O  O40  1  0.19747000  0.32836000  0.88621000  1
  O  O41  1  0.69747000  0.32836000  0.77241000  1
  O  O42  1  0.20902082  0.33921649  0.67148673  1
  O  O43  1  0.68273916  0.35028057  0.53343083  1
  O  O44  1  0.30253000  0.32836000  1.00000000  1
  O  O45  1  0.80253000  0.32836000  0.88621000  1
  O  O46  1  0.30253000  0.32836000  0.77241000  1
  O  O47  1  0.79068637  0.33983463  0.67352134  1
  O  O48  1  0.31472835  0.35058105  0.53562288  1
  O  O49  1  0.69747000  0.67164000  1.00000000  1
  O  O50  1  0.19747000  0.67164000  0.88621000  1
  O  O51  1  0.69747000  0.67164000  0.77241000  1
  O  O52  1  0.19972381  0.67009486  0.66336326  1
  O  O53  1  0.68851025  0.64939301  0.54816081  1
  O  O54  1  0.30253000  0.67164000  1.00000000  1
  O  O55  1  0.80253000  0.67164000  0.88621000  1
  O  O56  1  0.30253000  0.67164000  0.77241000  1
  O  O57  1  0.79913111  0.67030119  0.66403853  1
  O  O58  1  0.31076214  0.64841823  0.55035090  1
  O  O59  1  0.00000000  0.17164000  0.95506000  1
  O  O60  1  0.50000000  0.17164000  0.84126000  1
  O  O61  1  0.00021600  0.15531300  0.72933600  1
  O  O62  1  0.50579516  0.19221732  0.61520756  1
  O  O63  1  0.50000000  0.17164000  0.93115000  1
  O  O64  1  0.00000000  0.17164000  0.81736000  1
  O  O65  1  0.49875850  0.16368647  0.70344433  1
  O  O66  1  0.99755735  0.18462741  0.56676002  1
  O  O67  1  0.00000000  0.50000000  0.95668000  1
  O  O68  1  0.50000000  0.50000000  0.84289000  1
  O  O69  1  0.00049200  0.50002000  0.72830400  1
  O  O70  1  0.50384326  0.49503942  0.61749082  1
  O  O71  1  0.50000000  0.50000000  0.92952000  1
  O  O72  1  0.00000000  0.50000000  0.81573000  1
  O  O73  1  0.49797388  0.50849901  0.70689601  1
  O  O74  1  0.99764422  0.48813361  0.56859568  1
  O  O75  1  0.69034000  0.00000000  1.00000000  1
  O  O76  1  0.19034000  1.00000000  0.88621000  1
  O  O77  1  0.69034000  1.00000000  0.77241000  1
  O  O78  1  0.19982734  0.98418304  0.65991030  1
  O  O79  1  0.69135122  0.99859705  0.55344751  1
  O  O80  1  0.30966000  0.00000000  1.00000000  1
  O  O81  1  0.80966000  1.00000000  0.88621000  1
  O  O82  1  0.30966000  1.00000000  0.77241000  1
  O  O83  1  0.79794813  0.98365676  0.66032709  1
  O  O84  1  0.30578908  0.99995511  0.55436785  1
