# generated using pymatgen
data_MgTiMnVZnCrFeCoCuNiSb20ClO54
_symmetry_space_group_name_H-M   'P 1'
_cell_length_a   6.67885000
_cell_length_b   9.54336300
_cell_length_c   29.30405800
_cell_angle_alpha   89.89715100
_cell_angle_beta   89.98066800
_cell_angle_gamma   89.98838300
_symmetry_Int_Tables_number   1
_chemical_formula_structural   MgTiMnVZnCrFeCoCuNiSb20ClO54
_chemical_formula_sum
'Mg1 Ti1 Mn1 V1 Zn1 Cr1 Fe1 Co1 Cu1 Ni1 Sb20 Cl1 O54'
_cell_volume   1867.79911409
_cell_formula_units_Z   1
loop_
 _symmetry_equiv_pos_site_id
 _symmetry_equiv_pos_as_xyz
  1  'x, y, z'
loop_
 _atom_site_type_symbol
 _atom_site_label
 _atom_site_symmetry_multiplicity
 _atom_site_fract_x
 _atom_site_fract_y
 _atom_site_fract_z
 _atom_site_occupancy
  Mg  Mg0  1  0.50000000  0.33232000  0.88621000  1
  Ti  Ti1  1  0.00000000  0.16768000  0.88621000  1
  Mn  Mn2  1  0.99713300  0.99105900  0.57352400  1
  V  V3  1  0.00000000  0.66768000  0.00000000  1
  Zn  Zn4  1  0.00024700  0.81700100  0.65979000  1
  Cr  Cr5  1  0.00000000  0.33232000  0.77241000  1
  Fe  Fe6  1  0.49955800  0.50009900  0.55539600  1
  Co  Co7  1  0.00000200  0.49719300  0.66142700  1
  Cu  Cu8  1  0.50000000  0.50000000  0.00000000  1
  Ni  Ni9  1  0.50072300  0.33395600  0.66081600  1
  Sb  Sb10  1  0.00000000  0.00000000  0.00000000  1
  Sb  Sb11  1  0.50000000  1.00000000  0.88621000  1
  Sb  Sb12  1  0.00000000  0.00000000  0.77241000  1
  Sb  Sb13  1  0.50101800  0.00963600  0.65637100  1
  Sb  Sb14  1  0.00000000  0.50000000  0.88621000  1
  Sb  Sb15  1  0.50000000  0.50000000  0.77241000  1
  Sb  Sb16  1  0.50000000  0.66768000  0.88621000  1
  Sb  Sb17  1  0.00000000  0.66768000  0.77241000  1
  Sb  Sb18  1  0.50027700  0.65617400  0.65664700  1
  Sb  Sb19  1  0.00213200  0.65949600  0.54558900  1
  Sb  Sb20  1  0.50000000  0.16768000  0.00000000  1
  Sb  Sb21  1  0.50000000  0.16768000  0.77241000  1
  Sb  Sb22  1  0.00077800  0.18291400  0.66005100  1
  Sb  Sb23  1  0.49909300  0.17935500  0.54508300  1
  Sb  Sb24  1  0.50000000  0.83232000  0.00000000  1
  Sb  Sb25  1  0.00000000  0.83232000  0.88621000  1
  Sb  Sb26  1  0.50000000  0.83232000  0.77241000  1
  Sb  Sb27  1  0.49976800  0.81764300  0.54265900  1
  Sb  Sb28  1  0.00000000  0.33232000  0.00000000  1
  Sb  Sb29  1  0.99996300  0.33650100  0.54315300  1
  Cl  Cl30  1  0.49156300  0.52623900  0.47975200  1
  O  O31  1  0.00000000  0.82836000  0.95506000  1
  O  O32  1  0.50000000  0.82836000  0.84126000  1
  O  O33  1  0.00019600  0.84474300  0.72934800  1
  O  O34  1  0.50119100  0.84271100  0.61386100  1
  O  O35  1  0.50000000  0.82836000  0.93115000  1
  O  O36  1  0.00000000  0.82836000  0.81736000  1
  O  O37  1  0.50186400  0.84038500  0.70125200  1
  O  O38  1  0.99675200  0.81014300  0.59164900  1
  O  O39  1  0.69747000  0.32836000  1.00000000  1
  O  O40  1  0.19747000  0.32836000  0.88621000  1
  O  O41  1  0.69747000  0.32836000  0.77241000  1
  O  O42  1  0.19394300  0.34117100  0.66180100  1
  O  O43  1  0.68352600  0.34751000  0.55115500  1
  O  O44  1  0.30253000  0.32836000  0.00000000  1
  O  O45  1  0.80253000  0.32836000  0.88621000  1
  O  O46  1  0.30253000  0.32836000  0.77241000  1
  O  O47  1  0.80693600  0.34068600  0.66242300  1
  O  O48  1  0.31526200  0.34796600  0.55271400  1
  O  O49  1  0.69747000  0.67164000  1.00000000  1
  O  O50  1  0.19747000  0.67164000  0.88621000  1
  O  O51  1  0.69747000  0.67164000  0.77241000  1
  O  O52  1  0.20224200  0.65689100  0.66266400  1
  O  O53  1  0.68426800  0.65423400  0.55825700  1
  O  O54  1  0.30253000  0.67164000  0.00000000  1
  O  O55  1  0.80253000  0.67164000  0.88621000  1
  O  O56  1  0.30253000  0.67164000  0.77241000  1
  O  O57  1  0.79820200  0.65712100  0.66310200  1
  O  O58  1  0.31665000  0.65436700  0.56043900  1
  O  O59  1  0.00000000  0.17164000  0.95506000  1
  O  O60  1  0.50000000  0.17164000  0.84126000  1
  O  O61  1  0.00021600  0.15531300  0.72933600  1
  O  O62  1  0.50271900  0.17041300  0.61403900  1
  O  O63  1  0.50000000  0.17164000  0.93115000  1
  O  O64  1  0.00000000  0.17164000  0.81736000  1
  O  O65  1  0.50019000  0.16325500  0.70403400  1
  O  O66  1  0.99847900  0.18355600  0.59044900  1
  O  O67  1  0.00000000  0.50000000  0.95668000  1
  O  O68  1  0.50000000  0.50000000  0.84289000  1
  O  O69  1  0.00049200  0.50002000  0.72830400  1
  O  O70  1  0.50554300  0.48774000  0.61732300  1
  O  O71  1  0.50000000  0.50000000  0.92952000  1
  O  O72  1  0.00000000  0.50000000  0.81573000  1
  O  O73  1  0.49944900  0.50025500  0.70553300  1
  O  O74  1  0.99803200  0.49463700  0.58850100  1
  O  O75  1  0.69034000  0.00000000  1.00000000  1
  O  O76  1  0.19034000  1.00000000  0.88621000  1
  O  O77  1  0.69034000  0.00000000  0.77241000  1
  O  O78  1  0.19395400  0.01244800  0.65488900  1
  O  O79  1  0.77188500  0.99550700  0.54472000  1
  O  O80  1  0.30966000  1.00000000  0.00000000  1
  O  O81  1  0.80966000  0.00000000  0.88621000  1
  O  O82  1  0.30966000  1.00000000  0.77241000  1
  O  O83  1  0.80807300  0.01203900  0.65492000  1
  O  O84  1  0.22079900  0.99466100  0.54455000  1
