# generated using pymatgen
data_MgTiMnVZnCrFeCoCuNiSb20ClO54
_symmetry_space_group_name_H-M   'P 1'
_cell_length_a   6.69680000
_cell_length_b   9.55105600
_cell_length_c   29.30699200
_cell_angle_alpha   90.10995800
_cell_angle_beta   89.99744100
_cell_angle_gamma   89.99327200
_symmetry_Int_Tables_number   1
_chemical_formula_structural   MgTiMnVZnCrFeCoCuNiSb20ClO54
_chemical_formula_sum
'Mg1 Ti1 Mn1 V1 Zn1 Cr1 Fe1 Co1 Cu1 Ni1 Sb20 Cl1 O54'
_cell_volume   1874.51604845
_cell_formula_units_Z   1
loop_
 _symmetry_equiv_pos_site_id
 _symmetry_equiv_pos_as_xyz
  1  'x, y, z'
loop_
 _atom_site_type_symbol
 _atom_site_label
 _atom_site_symmetry_multiplicity
 _atom_site_fract_x
 _atom_site_fract_y
 _atom_site_fract_z
 _atom_site_occupancy
  Mg  Mg0  1  0.00386700  0.00050800  0.56026400  1
  Ti  Ti1  1  0.49968500  0.33807900  0.66788600  1
  Mn  Mn2  1  0.50000000  0.16768000  0.77241000  1
  V  V3  1  0.50000000  0.83232000  0.77241000  1
  Zn  Zn4  1  0.00000000  0.50000000  0.88621000  1
  Cr  Cr5  1  1.00000000  0.00000000  0.77241000  1
  Fe  Fe6  1  0.50189500  0.50147700  0.55290100  1
  Co  Co7  1  0.00000000  0.66768000  0.77241000  1
  Cu  Cu8  1  0.50000000  0.50000000  0.77241000  1
  Ni  Ni9  1  0.50165300  0.82872000  0.55275900  1
  Sb  Sb10  1  0.00000000  0.00000000  0.00000000  1
  Sb  Sb11  1  0.50000000  1.00000000  0.88621000  1
  Sb  Sb12  1  0.49931100  0.00238300  0.66433400  1
  Sb  Sb13  1  0.50000000  0.50000000  0.00000000  1
  Sb  Sb14  1  0.99948600  0.49604100  0.65998500  1
  Sb  Sb15  1  0.00000000  0.33232000  0.00000000  1
  Sb  Sb16  1  0.50000000  0.33232000  0.88621000  1
  Sb  Sb17  1  1.00000000  0.33232000  0.77241000  1
  Sb  Sb18  1  0.00120800  0.31469400  0.53894200  1
  Sb  Sb19  1  0.50000000  0.83232000  0.00000000  1
  Sb  Sb20  1  0.00000000  0.83232000  0.88621000  1
  Sb  Sb21  1  0.99875300  0.83341400  0.66347800  1
  Sb  Sb22  1  0.50000000  0.16768000  0.00000000  1
  Sb  Sb23  1  1.00000000  0.16768000  0.88621000  1
  Sb  Sb24  1  0.99992100  0.17038500  0.66167100  1
  Sb  Sb25  1  0.50267300  0.16176900  0.55319100  1
  Sb  Sb26  1  0.00000000  0.66768000  0.00000000  1
  Sb  Sb27  1  0.50000000  0.66768000  0.88621000  1
  Sb  Sb28  1  0.49894000  0.66450400  0.65743700  1
  Sb  Sb29  1  0.00015500  0.67768000  0.54293100  1
  Cl  Cl30  1  0.51025700  0.50338300  0.47837300  1
  O  O31  1  1.00000000  0.17164000  0.95506000  1
  O  O32  1  0.50000000  0.17164000  0.84126000  1
  O  O33  1  0.99980400  0.15525700  0.72934800  1
  O  O34  1  0.49895600  0.16575300  0.62081600  1
  O  O35  1  0.50000000  0.17164000  0.93115000  1
  O  O36  1  0.00000000  0.17164000  0.81736000  1
  O  O37  1  0.49984100  0.16394000  0.70685800  1
  O  O38  1  0.00189700  0.17950300  0.59382100  1
  O  O39  1  0.30253000  0.67164000  1.00000000  1
  O  O40  1  0.80253000  0.67164000  0.88621000  1
  O  O41  1  0.30253000  0.67164000  0.77241000  1
  O  O42  1  0.79749400  0.68029600  0.66441400  1
  O  O43  1  0.32246200  0.65868900  0.55556000  1
  O  O44  1  0.69747000  0.67164000  0.00000000  1
  O  O45  1  0.19747000  0.67164000  0.88621000  1
  O  O46  1  0.69747000  0.67164000  0.77241000  1
  O  O47  1  0.20044100  0.68007800  0.66476400  1
  O  O48  1  0.68122900  0.65874500  0.55703800  1
  O  O49  1  0.30253000  0.32836000  1.00000000  1
  O  O50  1  0.80253000  0.32836000  0.88621000  1
  O  O51  1  0.30253000  0.32836000  0.77241000  1
  O  O52  1  0.79101100  0.31483600  0.66605400  1
  O  O53  1  0.31886300  0.33326700  0.55062400  1
  O  O54  1  0.69747000  0.32836000  0.00000000  1
  O  O55  1  0.19747000  0.32836000  0.88621000  1
  O  O56  1  0.69747000  0.32836000  0.77241000  1
  O  O57  1  0.20812500  0.31518000  0.66619700  1
  O  O58  1  0.68526700  0.33429600  0.55204100  1
  O  O59  1  0.00000000  0.82836000  0.95506000  1
  O  O60  1  0.50000000  0.82836000  0.84126000  1
  O  O61  1  0.99978400  0.84468700  0.72933600  1
  O  O62  1  0.49823400  0.84477300  0.61896800  1
  O  O63  1  0.50000000  0.82836000  0.93115000  1
  O  O64  1  1.00000000  0.82836000  0.81736000  1
  O  O65  1  0.49976800  0.83405100  0.70569900  1
  O  O66  1  0.00337800  0.82411200  0.59465700  1
  O  O67  1  1.00000000  0.50000000  0.95668000  1
  O  O68  1  0.50000000  0.50000000  0.84289000  1
  O  O69  1  0.99950800  0.49998000  0.72830400  1
  O  O70  1  0.49817300  0.48660000  0.61828300  1
  O  O71  1  0.50000000  0.50000000  0.92952000  1
  O  O72  1  0.00000000  0.50000000  0.81573000  1
  O  O73  1  0.50011000  0.49954200  0.70239600  1
  O  O74  1  0.00489500  0.49145300  0.57230800  1
  O  O75  1  0.30966000  0.00000000  1.00000000  1
  O  O76  1  0.80966000  1.00000000  0.88621000  1
  O  O77  1  0.30966000  0.00000000  0.77241000  1
  O  O78  1  0.80830800  0.00328300  0.65803200  1
  O  O79  1  0.30283100  0.00991000  0.54344900  1
  O  O80  1  0.69034000  1.00000000  0.00000000  1
  O  O81  1  0.19034000  0.00000000  0.88621000  1
  O  O82  1  0.69034000  1.00000000  0.77241000  1
  O  O83  1  0.19041900  0.00307900  0.65818200  1
  O  O84  1  0.70400900  0.01051800  0.54404300  1
