# generated using pymatgen
data_MgTiMnVZnCrFeCoCuNiSb20ClO54
_symmetry_space_group_name_H-M   'P 1'
_cell_length_a   6.63977200
_cell_length_b   9.60908800
_cell_length_c   28.57690100
_cell_angle_alpha   89.73308700
_cell_angle_beta   89.97531100
_cell_angle_gamma   89.98086100
_symmetry_Int_Tables_number   1
_chemical_formula_structural   MgTiMnVZnCrFeCoCuNiSb20ClO54
_chemical_formula_sum
'Mg1 Ti1 Mn1 V1 Zn1 Cr1 Fe1 Co1 Cu1 Ni1 Sb20 Cl1 O54'
_cell_volume   1823.24776891
_cell_formula_units_Z   1
loop_
 _symmetry_equiv_pos_site_id
 _symmetry_equiv_pos_as_xyz
  1  'x, y, z'
loop_
 _atom_site_type_symbol
 _atom_site_label
 _atom_site_symmetry_multiplicity
 _atom_site_fract_x
 _atom_site_fract_y
 _atom_site_fract_z
 _atom_site_occupancy
  Mg  Mg0  1  0.50000000  0.33232000  0.88621000  1
  Ti  Ti1  1  0.00000000  0.00000000  0.00000000  1
  Mn  Mn2  1  0.00132200  0.34190200  0.54706200  1
  V  V3  1  0.50000000  0.16768000  0.77241000  1
  Zn  Zn4  1  1.00000000  0.00000000  0.77241000  1
  Cr  Cr5  1  1.00000000  0.83232000  0.88621000  1
  Fe  Fe6  1  0.50104700  0.50172700  0.54502200  1
  Co  Co7  1  1.00000000  0.33232000  0.77241000  1
  Cu  Cu8  1  0.00000000  0.33232000  0.00000000  1
  Ni  Ni9  1  0.00007700  0.82623500  0.66306600  1
  Sb  Sb10  1  0.50000000  0.00000000  0.88621000  1
  Sb  Sb11  1  0.49977500  0.00166900  0.65308400  1
  Sb  Sb12  1  0.00217600  0.99010000  0.57108400  1
  Sb  Sb13  1  0.50000000  0.50000000  0.00000000  1
  Sb  Sb14  1  1.00000000  0.50000000  0.88621000  1
  Sb  Sb15  1  0.50000000  0.50000000  0.77241000  1
  Sb  Sb16  1  0.00051700  0.51361100  0.65905400  1
  Sb  Sb17  1  0.49928400  0.33248200  0.65695700  1
  Sb  Sb18  1  0.50000000  0.83232000  0.00000000  1
  Sb  Sb19  1  0.50000000  0.83232000  0.77241000  1
  Sb  Sb20  1  0.50171300  0.81579700  0.53004100  1
  Sb  Sb21  1  0.50000000  0.16768000  0.00000000  1
  Sb  Sb22  1  1.00000000  0.16768000  0.88621000  1
  Sb  Sb23  1  0.99895500  0.16733000  0.66395200  1
  Sb  Sb24  1  0.50212100  0.19379100  0.53111000  1
  Sb  Sb25  1  1.00000000  0.66768000  0.00000000  1
  Sb  Sb26  1  0.50000000  0.66768000  0.88621000  1
  Sb  Sb27  1  1.00000000  0.66768000  0.77241000  1
  Sb  Sb28  1  0.50001500  0.67082300  0.64924000  1
  Sb  Sb29  1  0.00066000  0.65277700  0.53847200  1
  Cl  Cl30  1  0.50693500  0.52296300  0.46865700  1
  O  O31  1  1.00000000  0.17164000  0.95506000  1
  O  O32  1  0.50000000  0.17164000  0.84126000  1
  O  O33  1  0.99980400  0.15525700  0.72934800  1
  O  O34  1  0.49995500  0.16884800  0.60698600  1
  O  O35  1  0.50000000  0.17164000  0.93115000  1
  O  O36  1  1.00000000  0.17164000  0.81736000  1
  O  O37  1  0.49999100  0.16031200  0.70117400  1
  O  O38  1  0.00102600  0.18429200  0.59211900  1
  O  O39  1  0.30253000  0.67164000  0.00000000  1
  O  O40  1  0.80253000  0.67164000  0.88621000  1
  O  O41  1  0.30253000  0.67164000  0.77241000  1
  O  O42  1  0.80073700  0.66845500  0.66182400  1
  O  O43  1  0.31702800  0.65423500  0.55165200  1
  O  O44  1  0.69747000  0.67164000  0.00000000  1
  O  O45  1  0.19747000  0.67164000  0.88621000  1
  O  O46  1  0.69747000  0.67164000  0.77241000  1
  O  O47  1  0.19937100  0.66877300  0.66227600  1
  O  O48  1  0.68524700  0.65371900  0.55281800  1
  O  O49  1  0.30253000  0.32836000  0.00000000  1
  O  O50  1  0.80253000  0.32836000  0.88621000  1
  O  O51  1  0.30253000  0.32836000  0.77241000  1
  O  O52  1  0.81034800  0.33993400  0.65902500  1
  O  O53  1  0.29785600  0.34768500  0.54156000  1
  O  O54  1  0.69747000  0.32836000  0.00000000  1
  O  O55  1  0.19747000  0.32836000  0.88621000  1
  O  O56  1  0.69747000  0.32836000  0.77241000  1
  O  O57  1  0.18831000  0.33925000  0.65932200  1
  O  O58  1  0.70446000  0.34844300  0.54250700  1
  O  O59  1  1.00000000  0.82836000  0.95506000  1
  O  O60  1  0.50000000  0.82836000  0.84126000  1
  O  O61  1  0.99978400  0.84468700  0.72933600  1
  O  O62  1  0.49827900  0.84606900  0.60544900  1
  O  O63  1  0.50000000  0.82836000  0.93115000  1
  O  O64  1  1.00000000  0.82836000  0.81736000  1
  O  O65  1  0.50033700  0.83313900  0.69795200  1
  O  O66  1  0.00203600  0.79766500  0.59125400  1
  O  O67  1  1.00000000  0.50000000  0.95668000  1
  O  O68  1  0.50000000  0.50000000  0.84289000  1
  O  O69  1  0.99950800  0.49998000  0.72830400  1
  O  O70  1  0.49617100  0.49215400  0.60969400  1
  O  O71  1  0.50000000  0.50000000  0.92952000  1
  O  O72  1  1.00000000  0.50000000  0.81573000  1
  O  O73  1  0.50001700  0.50889100  0.69996800  1
  O  O74  1  0.00334000  0.50611500  0.58865600  1
  O  O75  1  0.30966000  0.00000000  0.00000000  1
  O  O76  1  0.80966000  0.00000000  0.88621000  1
  O  O77  1  0.30966000  0.00000000  0.77241000  1
  O  O78  1  0.80979800  0.00132300  0.64720600  1
  O  O79  1  0.25210400  0.99217500  0.53709800  1
  O  O80  1  0.69034000  0.00000000  0.00000000  1
  O  O81  1  0.19034000  0.00000000  0.88621000  1
  O  O82  1  0.69034000  0.00000000  0.77241000  1
  O  O83  1  0.18913500  0.00159400  0.64706100  1
  O  O84  1  0.75124900  0.99221500  0.53743900  1
