# generated using pymatgen
data_MgTiMnVZnCrFeCoCuNiSb20ClO54
_symmetry_space_group_name_H-M   'P 1'
_cell_length_a   6.67589900
_cell_length_b   9.76953300
_cell_length_c   29.27756900
_cell_angle_alpha   90.27955600
_cell_angle_beta   89.94097900
_cell_angle_gamma   89.98615000
_symmetry_Int_Tables_number   1
_chemical_formula_structural   MgTiMnVZnCrFeCoCuNiSb20ClO54
_chemical_formula_sum
'Mg1 Ti1 Mn1 V1 Zn1 Cr1 Fe1 Co1 Cu1 Ni1 Sb20 Cl1 O54'
_cell_volume   1909.47141729
_cell_formula_units_Z   1
loop_
 _symmetry_equiv_pos_site_id
 _symmetry_equiv_pos_as_xyz
  1  'x, y, z'
loop_
 _atom_site_type_symbol
 _atom_site_label
 _atom_site_symmetry_multiplicity
 _atom_site_fract_x
 _atom_site_fract_y
 _atom_site_fract_z
 _atom_site_occupancy
  Mg  Mg0  1  0.49938600  0.00131000  0.66511700  1
  Ti  Ti1  1  0.49658900  0.44995700  0.55649900  1
  Mn  Mn2  1  1.00000000  0.66768000  0.00000000  1
  V  V3  1  0.49966400  0.84670000  0.55997200  1
  Zn  Zn4  1  0.00000000  0.33232000  0.77241000  1
  Cr  Cr5  1  0.50000000  0.16768000  0.77241000  1
  Fe  Fe6  1  0.00000000  0.00000000  0.00000000  1
  Co  Co7  1  0.49936200  0.15789100  0.56864300  1
  Cu  Cu8  1  0.49989400  0.31715800  0.67173800  1
  Ni  Ni9  1  0.50000000  0.50000000  0.77241000  1
  Sb  Sb10  1  0.50000000  0.00000000  0.88621000  1
  Sb  Sb11  1  0.00000000  0.00000000  0.77241000  1
  Sb  Sb12  1  0.99866500  0.00402600  0.54556900  1
  Sb  Sb13  1  0.50000000  0.50000000  0.00000000  1
  Sb  Sb14  1  0.00000000  0.50000000  0.88621000  1
  Sb  Sb15  1  0.00001800  0.48122400  0.66021900  1
  Sb  Sb16  1  0.50000000  0.66768000  0.88621000  1
  Sb  Sb17  1  0.00000000  0.66768000  0.77241000  1
  Sb  Sb18  1  0.49934300  0.66537300  0.66367100  1
  Sb  Sb19  1  0.99922400  0.69413400  0.52972700  1
  Sb  Sb20  1  0.50000000  0.16768000  0.00000000  1
  Sb  Sb21  1  0.00000000  0.16768000  0.88621000  1
  Sb  Sb22  1  0.99975500  0.16040400  0.66158600  1
  Sb  Sb23  1  0.50000000  0.83232000  0.00000000  1
  Sb  Sb24  1  0.00000000  0.83232000  0.88621000  1
  Sb  Sb25  1  0.50000000  0.83232000  0.77241000  1
  Sb  Sb26  1  0.99876000  0.83946700  0.65714700  1
  Sb  Sb27  1  0.00000000  0.33232000  0.00000000  1
  Sb  Sb28  1  0.50000000  0.33232000  0.88621000  1
  Sb  Sb29  1  0.99994300  0.32764400  0.53812800  1
  Cl  Cl30  1  0.47639200  0.51450100  0.48233700  1
  O  O31  1  0.00000000  0.82836000  0.95506000  1
  O  O32  1  0.50000000  0.82836000  0.84126000  1
  O  O33  1  0.00019600  0.84474300  0.72934800  1
  O  O34  1  0.50309500  0.83074200  0.61947600  1
  O  O35  1  0.50000000  0.82836000  0.93115000  1
  O  O36  1  0.00000000  0.82836000  0.81736000  1
  O  O37  1  0.49863600  0.83209800  0.70543300  1
  O  O38  1  0.99605300  0.83652700  0.58796600  1
  O  O39  1  0.69747000  0.32836000  0.00000000  1
  O  O40  1  0.19747000  0.32836000  0.88621000  1
  O  O41  1  0.69747000  0.32836000  0.77241000  1
  O  O42  1  0.19894800  0.31284400  0.66426900  1
  O  O43  1  0.69626200  0.32388300  0.55545300  1
  O  O44  1  0.30253000  0.32836000  0.00000000  1
  O  O45  1  0.80253000  0.32836000  0.88621000  1
  O  O46  1  0.30253000  0.32836000  0.77241000  1
  O  O47  1  0.80086800  0.31329300  0.66431100  1
  O  O48  1  0.29930000  0.32231900  0.55802600  1
  O  O49  1  0.69747000  0.67164000  0.00000000  1
  O  O50  1  0.19747000  0.67164000  0.88621000  1
  O  O51  1  0.69747000  0.67164000  0.77241000  1
  O  O52  1  0.19630000  0.68635900  0.66090500  1
  O  O53  1  0.69141400  0.73651700  0.54175800  1
  O  O54  1  0.30253000  0.67164000  0.00000000  1
  O  O55  1  0.80253000  0.67164000  0.88621000  1
  O  O56  1  0.30253000  0.67164000  0.77241000  1
  O  O57  1  0.80297600  0.68557100  0.66221800  1
  O  O58  1  0.30437800  0.73796000  0.54387700  1
  O  O59  1  1.00000000  0.17164000  0.95506000  1
  O  O60  1  0.50000000  0.17164000  0.84126000  1
  O  O61  1  0.00021600  0.15531300  0.72933600  1
  O  O62  1  0.50203400  0.16913000  0.62722200  1
  O  O63  1  0.50000000  0.17164000  0.93115000  1
  O  O64  1  0.00000000  0.17164000  0.81736000  1
  O  O65  1  0.49933200  0.14671700  0.71561000  1
  O  O66  1  0.99647700  0.16749400  0.58941900  1
  O  O67  1  0.00000000  0.50000000  0.95668000  1
  O  O68  1  0.50000000  0.50000000  0.84289000  1
  O  O69  1  0.00049200  0.50002000  0.72830400  1
  O  O70  1  0.50219600  0.53919300  0.61029000  1
  O  O71  1  0.50000000  0.50000000  0.92952000  1
  O  O72  1  0.00000000  0.50000000  0.81573000  1
  O  O73  1  0.49775000  0.50370200  0.70303100  1
  O  O74  1  0.99875600  0.51931700  0.56459500  1
  O  O75  1  0.69034000  0.00000000  0.00000000  1
  O  O76  1  0.19034000  0.00000000  0.88621000  1
  O  O77  1  0.69034000  0.00000000  0.77241000  1
  O  O78  1  0.19078000  0.99790000  0.65763700  1
  O  O79  1  0.67907000  0.00353300  0.55222700  1
  O  O80  1  0.30966000  0.00000000  0.00000000  1
  O  O81  1  0.80966000  0.00000000  0.88621000  1
  O  O82  1  0.30966000  0.00000000  0.77241000  1
  O  O83  1  0.80810700  0.99822800  0.65857200  1
  O  O84  1  0.31985800  0.00372700  0.55237700  1
