# generated using pymatgen
data_MgTiMnVZnCrFeCoCuNiSb20ClO54
_symmetry_space_group_name_H-M   'P 1'
_cell_length_a   6.70822600
_cell_length_b   9.57218000
_cell_length_c   29.43115200
_cell_angle_alpha   90.09277100
_cell_angle_beta   89.97688600
_cell_angle_gamma   89.98720200
_symmetry_Int_Tables_number   1
_chemical_formula_structural   MgTiMnVZnCrFeCoCuNiSb20ClO54
_chemical_formula_sum
'Mg1 Ti1 Mn1 V1 Zn1 Cr1 Fe1 Co1 Cu1 Ni1 Sb20 Cl1 O54'
_cell_volume   1889.84065907
_cell_formula_units_Z   1
loop_
 _symmetry_equiv_pos_site_id
 _symmetry_equiv_pos_as_xyz
  1  'x, y, z'
loop_
 _atom_site_type_symbol
 _atom_site_label
 _atom_site_symmetry_multiplicity
 _atom_site_fract_x
 _atom_site_fract_y
 _atom_site_fract_z
 _atom_site_occupancy
  Mg  Mg0  1  0.00000000  0.00000000  0.00000000  1
  Ti  Ti1  1  0.49804300  0.47451900  0.55365000  1
  Mn  Mn2  1  0.50108700  0.01085200  0.66334600  1
  V  V3  1  0.50000000  1.00000000  0.88621000  1
  Zn  Zn4  1  0.99928100  0.49209600  0.65521900  1
  Cr  Cr5  1  1.00000000  1.00000000  0.77241000  1
  Fe  Fe6  1  1.00000000  0.16768000  0.88621000  1
  Co  Co7  1  0.99826000  0.99424700  0.55570400  1
  Cu  Cu8  1  0.50027800  0.32508500  0.65686000  1
  Ni  Ni9  1  0.49939200  0.16035200  0.55749600  1
  Sb  Sb10  1  0.50000000  0.50000000  0.00000000  1
  Sb  Sb11  1  1.00000000  0.50000000  0.88621000  1
  Sb  Sb12  1  0.50000000  0.50000000  0.77241000  1
  Sb  Sb13  1  1.00000000  0.66768000  0.00000000  1
  Sb  Sb14  1  0.50000000  0.66768000  0.88621000  1
  Sb  Sb15  1  0.00000000  0.66768000  0.77241000  1
  Sb  Sb16  1  0.50035900  0.66735600  0.66029400  1
  Sb  Sb17  1  0.00053500  0.67728800  0.54304700  1
  Sb  Sb18  1  0.50000000  0.16768000  0.00000000  1
  Sb  Sb19  1  0.50000000  0.16768000  0.77241000  1
  Sb  Sb20  1  0.00020700  0.17572300  0.65910500  1
  Sb  Sb21  1  0.50000000  0.83232000  0.00000000  1
  Sb  Sb22  1  1.00000000  0.83232000  0.88621000  1
  Sb  Sb23  1  0.50000000  0.83232000  0.77241000  1
  Sb  Sb24  1  0.00001200  0.83526100  0.66018800  1
  Sb  Sb25  1  0.49947600  0.84063800  0.55489200  1
  Sb  Sb26  1  1.00000000  0.33232000  0.00000000  1
  Sb  Sb27  1  0.50000000  0.33232000  0.88621000  1
  Sb  Sb28  1  0.00000000  0.33232000  0.77241000  1
  Sb  Sb29  1  0.00052600  0.32504900  0.54438800  1
  Cl  Cl30  1  0.47329000  0.50829700  0.47601100  1
  O  O31  1  1.00000000  0.82836000  0.95506000  1
  O  O32  1  0.50000000  0.82836000  0.84126000  1
  O  O33  1  0.00019600  0.84474300  0.72934800  1
  O  O34  1  0.50321300  0.84779500  0.62224100  1
  O  O35  1  0.50000000  0.82836000  0.93115000  1
  O  O36  1  1.00000000  0.82836000  0.81736000  1
  O  O37  1  0.49983900  0.83531000  0.70483100  1
  O  O38  1  0.99253000  0.82649800  0.59249800  1
  O  O39  1  0.69747000  0.32836000  0.00000000  1
  O  O40  1  0.19747000  0.32836000  0.88621000  1
  O  O41  1  0.69747000  0.32836000  0.77241000  1
  O  O42  1  0.20038400  0.32642800  0.66054100  1
  O  O43  1  0.68682500  0.33438400  0.55381200  1
  O  O44  1  0.30253000  0.32836000  0.00000000  1
  O  O45  1  0.80253000  0.32836000  0.88621000  1
  O  O46  1  0.30253000  0.32836000  0.77241000  1
  O  O47  1  0.79973700  0.32613500  0.66075200  1
  O  O48  1  0.31189600  0.33290100  0.55652100  1
  O  O49  1  0.69747000  0.67164000  0.00000000  1
  O  O50  1  0.19747000  0.67164000  0.88621000  1
  O  O51  1  0.69747000  0.67164000  0.77241000  1
  O  O52  1  0.19582400  0.67575400  0.66255000  1
  O  O53  1  0.68441800  0.67744500  0.55149300  1
  O  O54  1  0.30253000  0.67164000  0.00000000  1
  O  O55  1  0.80253000  0.67164000  0.88621000  1
  O  O56  1  0.30253000  0.67164000  0.77241000  1
  O  O57  1  0.80463300  0.67544500  0.66325000  1
  O  O58  1  0.31201900  0.67863400  0.55550000  1
  O  O59  1  1.00000000  0.17164000  0.95506000  1
  O  O60  1  0.50000000  0.17164000  0.84126000  1
  O  O61  1  0.00021600  0.15531300  0.72933600  1
  O  O62  1  0.50239200  0.14212000  0.62143200  1
  O  O63  1  0.50000000  0.17164000  0.93115000  1
  O  O64  1  1.00000000  0.17164000  0.81736000  1
  O  O65  1  0.49940900  0.15876200  0.70561800  1
  O  O66  1  0.99728500  0.16723400  0.59001000  1
  O  O67  1  0.00000000  0.50000000  0.95668000  1
  O  O68  1  0.50000000  0.50000000  0.84289000  1
  O  O69  1  0.00049200  0.50002000  0.72830400  1
  O  O70  1  0.50485100  0.51246000  0.61765100  1
  O  O71  1  0.50000000  0.50000000  0.92952000  1
  O  O72  1  1.00000000  0.50000000  0.81573000  1
  O  O73  1  0.49846400  0.50942300  0.70473700  1
  O  O74  1  0.99665600  0.50474000  0.58255700  1
  O  O75  1  0.69034000  0.00000000  0.00000000  1
  O  O76  1  0.19034000  1.00000000  0.88621000  1
  O  O77  1  0.69034000  1.00000000  0.77241000  1
  O  O78  1  0.19332200  0.00159800  0.66028400  1
  O  O79  1  0.70138800  0.99527400  0.54468500  1
  O  O80  1  0.30966000  0.00000000  0.00000000  1
  O  O81  1  0.80966000  1.00000000  0.88621000  1
  O  O82  1  0.30966000  1.00000000  0.77241000  1
  O  O83  1  0.80774700  0.00195300  0.66088400  1
  O  O84  1  0.29481200  0.99399900  0.54531800  1
