# generated using pymatgen
data_MgTiMnVZnCrFeCoCuNiSb20ClO54
_symmetry_space_group_name_H-M   'P 1'
_cell_length_a   6.73310000
_cell_length_b   9.43284300
_cell_length_c   29.09101700
_cell_angle_alpha   89.89290900
_cell_angle_beta   89.98235200
_cell_angle_gamma   89.99502300
_symmetry_Int_Tables_number   1
_chemical_formula_structural   MgTiMnVZnCrFeCoCuNiSb20ClO54
_chemical_formula_sum
'Mg1 Ti1 Mn1 V1 Zn1 Cr1 Fe1 Co1 Cu1 Ni1 Sb20 Cl1 O54'
_cell_volume   1847.63335577
_cell_formula_units_Z   1
loop_
 _symmetry_equiv_pos_site_id
 _symmetry_equiv_pos_as_xyz
  1  'x, y, z'
loop_
 _atom_site_type_symbol
 _atom_site_label
 _atom_site_symmetry_multiplicity
 _atom_site_fract_x
 _atom_site_fract_y
 _atom_site_fract_z
 _atom_site_occupancy
  Mg  Mg0  1  0.50000000  0.00000000  0.88621000  1
  Ti  Ti1  1  0.49956500  0.51267500  0.53755100  1
  Mn  Mn2  1  1.00000000  0.83232000  0.88621000  1
  V  V3  1  0.50000000  0.33232000  0.88621000  1
  Zn  Zn4  1  0.50000000  0.50000000  1.00000000  1
  Cr  Cr5  1  0.49939200  0.83171700  0.54980700  1
  Fe  Fe6  1  0.50000000  0.83232000  0.77241000  1
  Co  Co7  1  0.00029200  0.50032800  0.65707100  1
  Cu  Cu8  1  0.99900600  0.34861200  0.55228800  1
  Ni  Ni9  1  0.00000000  0.00000000  0.77241000  1
  Sb  Sb10  1  0.00000000  0.00000000  0.00000000  1
  Sb  Sb11  1  0.49939100  0.99562000  0.66020700  1
  Sb  Sb12  1  0.99885800  0.00334800  0.54331400  1
  Sb  Sb13  1  1.00000000  0.50000000  0.88621000  1
  Sb  Sb14  1  0.50000000  0.50000000  0.77241000  1
  Sb  Sb15  1  1.00000000  0.66768000  0.00000000  1
  Sb  Sb16  1  0.50000000  0.66768000  0.88621000  1
  Sb  Sb17  1  1.00000000  0.66768000  0.77241000  1
  Sb  Sb18  1  0.50004900  0.66414200  0.65726800  1
  Sb  Sb19  1  0.99976400  0.65348800  0.54306400  1
  Sb  Sb20  1  0.50000000  0.16768000  1.00000000  1
  Sb  Sb21  1  0.00000000  0.16768000  0.88621000  1
  Sb  Sb22  1  0.50000000  0.16768000  0.77241000  1
  Sb  Sb23  1  0.99892100  0.17047000  0.65909100  1
  Sb  Sb24  1  0.49850300  0.19087800  0.53588500  1
  Sb  Sb25  1  0.50000000  0.83232000  1.00000000  1
  Sb  Sb26  1  0.99928900  0.82555500  0.66057600  1
  Sb  Sb27  1  0.00000000  0.33232000  0.00000000  1
  Sb  Sb28  1  0.00000000  0.33232000  0.77241000  1
  Sb  Sb29  1  0.50028900  0.33401500  0.65183300  1
  Cl  Cl30  1  0.49645000  0.51376300  0.45951100  1
  O  O31  1  1.00000000  0.82836000  0.95506000  1
  O  O32  1  0.50000000  0.82836000  0.84126000  1
  O  O33  1  0.00019600  0.84474300  0.72934800  1
  O  O34  1  0.50432800  0.82674000  0.61346000  1
  O  O35  1  0.50000000  0.82836000  0.93115000  1
  O  O36  1  1.00000000  0.82836000  0.81736000  1
  O  O37  1  0.49922400  0.82110800  0.70299100  1
  O  O38  1  0.99692400  0.82990100  0.58902100  1
  O  O39  1  0.69747000  0.32836000  0.00000000  1
  O  O40  1  0.19747000  0.32836000  0.88621000  1
  O  O41  1  0.69747000  0.32836000  0.77241000  1
  O  O42  1  0.19763700  0.33073900  0.65825100  1
  O  O43  1  0.69932300  0.35687400  0.54279200  1
  O  O44  1  0.30253000  0.32836000  1.00000000  1
  O  O45  1  0.80253000  0.32836000  0.88621000  1
  O  O46  1  0.30253000  0.32836000  0.77241000  1
  O  O47  1  0.80262300  0.33192300  0.65875200  1
  O  O48  1  0.29810400  0.35660500  0.54308000  1
  O  O49  1  0.69747000  0.67164000  0.00000000  1
  O  O50  1  0.19747000  0.67164000  0.88621000  1
  O  O51  1  0.69747000  0.67164000  0.77241000  1
  O  O52  1  0.19738800  0.66709800  0.66029800  1
  O  O53  1  0.68052000  0.66843000  0.54594600  1
  O  O54  1  0.30253000  0.67164000  1.00000000  1
  O  O55  1  0.80253000  0.67164000  0.88621000  1
  O  O56  1  0.30253000  0.67164000  0.77241000  1
  O  O57  1  0.80248400  0.66651700  0.66097000  1
  O  O58  1  0.31781100  0.66883200  0.54660200  1
  O  O59  1  0.00000000  0.17164000  0.95506000  1
  O  O60  1  0.50000000  0.17164000  0.84126000  1
  O  O61  1  0.00021600  0.15531300  0.72933600  1
  O  O62  1  0.50292700  0.17285000  0.60756900  1
  O  O63  1  0.50000000  0.17164000  0.93115000  1
  O  O64  1  0.00000000  0.17164000  0.81736000  1
  O  O65  1  0.50012300  0.18485100  0.70202100  1
  O  O66  1  0.99579700  0.15940600  0.59015300  1
  O  O67  1  1.00000000  0.50000000  0.95668000  1
  O  O68  1  0.50000000  0.50000000  0.84289000  1
  O  O69  1  0.00049200  0.50002000  0.72830400  1
  O  O70  1  0.50065200  0.50471800  0.61179700  1
  O  O71  1  0.50000000  0.50000000  0.92952000  1
  O  O72  1  1.00000000  0.50000000  0.81573000  1
  O  O73  1  0.49945400  0.49332300  0.70001100  1
  O  O74  1  0.99831500  0.51472100  0.59321400  1
  O  O75  1  0.69034000  1.00000000  0.00000000  1
  O  O76  1  0.19034000  0.00000000  0.88621000  1
  O  O77  1  0.69034000  1.00000000  0.77241000  1
  O  O78  1  0.18673800  0.99699900  0.65800500  1
  O  O79  1  0.68722000  0.96917700  0.54243300  1
  O  O80  1  0.30966000  0.00000000  1.00000000  1
  O  O81  1  0.80966000  1.00000000  0.88621000  1
  O  O82  1  0.30966000  0.00000000  0.77241000  1
  O  O83  1  0.81144200  0.99700800  0.65866300  1
  O  O84  1  0.31058600  0.96974500  0.54482000  1
