# generated using pymatgen
data_MgTiMnVZnCrFeCoCuNiSb20ClO54
_symmetry_space_group_name_H-M   'P 1'
_cell_length_a   6.66089700
_cell_length_b   9.67282100
_cell_length_c   29.67930500
_cell_angle_alpha   90.09331600
_cell_angle_beta   89.93953500
_cell_angle_gamma   89.89538500
_symmetry_Int_Tables_number   1
_chemical_formula_structural   MgTiMnVZnCrFeCoCuNiSb20ClO54
_chemical_formula_sum
'Mg1 Ti1 Mn1 V1 Zn1 Cr1 Fe1 Co1 Cu1 Ni1 Sb20 Cl1 O54'
_cell_volume   1912.22086570
_cell_formula_units_Z   1
loop_
 _symmetry_equiv_pos_site_id
 _symmetry_equiv_pos_as_xyz
  1  'x, y, z'
loop_
 _atom_site_type_symbol
 _atom_site_label
 _atom_site_symmetry_multiplicity
 _atom_site_fract_x
 _atom_site_fract_y
 _atom_site_fract_z
 _atom_site_occupancy
  Mg  Mg0  1  0.49893000  0.98682400  0.34241000  1
  Ti  Ti1  1  0.50014700  0.49743200  0.45045500  1
  Mn  Mn2  1  0.50000000  0.50000000  1.00000000  1
  V  V3  1  0.50000000  0.83232000  0.22759000  1
  Zn  Zn4  1  0.99704000  0.16666800  0.33538800  1
  Cr  Cr5  1  0.50000000  0.50000000  0.22759000  1
  Fe  Fe6  1  0.99525600  0.64407400  0.44585600  1
  Co  Co7  1  0.00585500  0.33594000  0.44263500  1
  Cu  Cu8  1  0.49824900  0.65980300  0.33687500  1
  Ni  Ni9  1  0.50000000  0.66768000  0.11379000  1
  Sb  Sb10  1  0.00000000  0.00000000  0.00000000  1
  Sb  Sb11  1  0.50000000  1.00000000  0.11379000  1
  Sb  Sb12  1  0.00000000  0.00000000  0.22759000  1
  Sb  Sb13  1  0.00232600  0.00364200  0.41748900  1
  Sb  Sb14  1  0.00000000  0.50000000  0.11379000  1
  Sb  Sb15  1  0.99976600  0.49563700  0.33982700  1
  Sb  Sb16  1  1.00000000  0.33232000  0.00000000  1
  Sb  Sb17  1  0.50000000  0.33232000  0.11379000  1
  Sb  Sb18  1  1.00000000  0.33232000  0.22759000  1
  Sb  Sb19  1  0.49935900  0.33854000  0.33767200  1
  Sb  Sb20  1  0.50000000  0.83232000  1.00000000  1
  Sb  Sb21  1  0.00000000  0.83232000  0.11379000  1
  Sb  Sb22  1  0.99624400  0.82046000  0.33906600  1
  Sb  Sb23  1  0.48938200  0.81349500  0.44768100  1
  Sb  Sb24  1  0.50000000  0.16768000  1.00000000  1
  Sb  Sb25  1  0.00000000  0.16768000  0.11379000  1
  Sb  Sb26  1  0.50000000  0.16768000  0.22759000  1
  Sb  Sb27  1  0.51329200  0.17945600  0.45016900  1
  Sb  Sb28  1  1.00000000  0.66768000  0.00000000  1
  Sb  Sb29  1  1.00000000  0.66768000  0.22759000  1
  Cl  Cl30  1  0.49784100  0.46044900  0.52785100  1
  O  O31  1  1.00000000  0.17164000  0.04494000  1
  O  O32  1  0.50000000  0.17164000  0.15874000  1
  O  O33  1  0.00019600  0.15525700  0.27065200  1
  O  O34  1  0.50170000  0.17549800  0.38138700  1
  O  O35  1  0.50000000  0.17164000  0.06885000  1
  O  O36  1  0.00000000  0.17164000  0.18264000  1
  O  O37  1  0.49913400  0.16905400  0.29512900  1
  O  O38  1  0.00893000  0.19447900  0.39998000  1
  O  O39  1  0.69747000  0.67164000  1.00000000  1
  O  O40  1  0.19747000  0.67164000  0.11379000  1
  O  O41  1  0.69747000  0.67164000  0.22759000  1
  O  O42  1  0.19098800  0.66123300  0.33354500  1
  O  O43  1  0.70644700  0.63583700  0.45461500  1
  O  O44  1  0.30253000  0.67164000  1.00000000  1
  O  O45  1  0.80253000  0.67164000  0.11379000  1
  O  O46  1  0.30253000  0.67164000  0.22759000  1
  O  O47  1  0.80508300  0.66030300  0.33294800  1
  O  O48  1  0.29002100  0.64194000  0.45387600  1
  O  O49  1  0.69747000  0.32836000  1.00000000  1
  O  O50  1  0.19747000  0.32836000  0.11379000  1
  O  O51  1  0.69747000  0.32836000  0.22759000  1
  O  O52  1  0.19626500  0.34050500  0.33231100  1
  O  O53  1  0.71979900  0.34106300  0.45042200  1
  O  O54  1  0.30253000  0.32836000  1.00000000  1
  O  O55  1  0.80253000  0.32836000  0.11379000  1
  O  O56  1  0.30253000  0.32836000  0.22759000  1
  O  O57  1  0.80308000  0.34038000  0.33231400  1
  O  O58  1  0.28157100  0.34413700  0.45067700  1
  O  O59  1  0.00000000  0.82836000  0.04494000  1
  O  O60  1  0.50000000  0.82836000  0.15874000  1
  O  O61  1  0.00021600  0.84468700  0.27066400  1
  O  O62  1  0.49953300  0.81026900  0.38180400  1
  O  O63  1  0.50000000  0.82836000  0.06885000  1
  O  O64  1  0.00000000  0.82836000  0.18264000  1
  O  O65  1  0.49941700  0.84801400  0.28434500  1
  O  O66  1  0.98913900  0.79952200  0.40684000  1
  O  O67  1  0.00000000  0.50000000  0.04332000  1
  O  O68  1  0.50000000  0.50000000  0.15711000  1
  O  O69  1  0.00049200  0.49998000  0.27169600  1
  O  O70  1  0.50024900  0.48217100  0.38524800  1
  O  O71  1  0.50000000  0.50000000  0.07048000  1
  O  O72  1  0.00000000  0.50000000  0.18427000  1
  O  O73  1  0.49882300  0.49716600  0.29281900  1
  O  O74  1  0.99755500  0.49591400  0.40492200  1
  O  O75  1  0.69034000  1.00000000  1.00000000  1
  O  O76  1  0.19034000  1.00000000  0.11379000  1
  O  O77  1  0.69034000  0.00000000  0.22759000  1
  O  O78  1  0.18493200  0.97695600  0.35170600  1
  O  O79  1  0.74956900  0.01254200  0.45016700  1
  O  O80  1  0.30966000  1.00000000  1.00000000  1
  O  O81  1  0.80966000  1.00000000  0.11379000  1
  O  O82  1  0.30966000  0.00000000  0.22759000  1
  O  O83  1  0.81233500  0.98054300  0.35048000  1
  O  O84  1  0.25130200  0.98904500  0.45084100  1
