# generated using pymatgen
data_MgTiMnVZnCrFeCoCuNiSb20ClO54
_symmetry_space_group_name_H-M   'P 1'
_cell_length_a   6.68123600
_cell_length_b   9.52774400
_cell_length_c   29.54875000
_cell_angle_alpha   89.94418800
_cell_angle_beta   89.96383600
_cell_angle_gamma   89.99955400
_symmetry_Int_Tables_number   1
_chemical_formula_structural   MgTiMnVZnCrFeCoCuNiSb20ClO54
_chemical_formula_sum
'Mg1 Ti1 Mn1 V1 Zn1 Cr1 Fe1 Co1 Cu1 Ni1 Sb20 Cl1 O54'
_cell_volume   1880.98665003
_cell_formula_units_Z   1
loop_
 _symmetry_equiv_pos_site_id
 _symmetry_equiv_pos_as_xyz
  1  'x, y, z'
loop_
 _atom_site_type_symbol
 _atom_site_label
 _atom_site_symmetry_multiplicity
 _atom_site_fract_x
 _atom_site_fract_y
 _atom_site_fract_z
 _atom_site_occupancy
  Mg  Mg0  1  0.00056500  0.83514900  0.65618600  1
  Ti  Ti1  1  0.50162700  0.47562400  0.54943800  1
  Mn  Mn2  1  0.00161400  0.33510100  0.55862100  1
  V  V3  1  0.50001600  0.66621600  0.65997200  1
  Zn  Zn4  1  0.50000000  0.83232000  1.00000000  1
  Cr  Cr5  1  0.50169300  0.16931100  0.55738000  1
  Fe  Fe6  1  0.50057100  0.99222600  0.66132500  1
  Co  Co7  1  1.00000000  0.50000000  0.88621000  1
  Cu  Cu8  1  1.00000000  0.33232000  0.77241000  1
  Ni  Ni9  1  1.00000000  0.16768000  0.88621000  1
  Sb  Sb10  1  0.00000000  0.00000000  0.00000000  1
  Sb  Sb11  1  0.50000000  0.00000000  0.88621000  1
  Sb  Sb12  1  1.00000000  0.00000000  0.77241000  1
  Sb  Sb13  1  0.00127600  0.01306500  0.54387200  1
  Sb  Sb14  1  0.50000000  0.50000000  1.00000000  1
  Sb  Sb15  1  0.50000000  0.50000000  0.77241000  1
  Sb  Sb16  1  0.00010400  0.51151000  0.66120700  1
  Sb  Sb17  1  1.00000000  0.33232000  1.00000000  1
  Sb  Sb18  1  0.50000000  0.33232000  0.88621000  1
  Sb  Sb19  1  0.50040400  0.33323500  0.66057800  1
  Sb  Sb20  1  1.00000000  0.83232000  0.88621000  1
  Sb  Sb21  1  0.50000000  0.83232000  0.77241000  1
  Sb  Sb22  1  0.50296400  0.81394500  0.55146900  1
  Sb  Sb23  1  0.50000000  0.16768000  1.00000000  1
  Sb  Sb24  1  0.50000000  0.16768000  0.77241000  1
  Sb  Sb25  1  0.00108900  0.14913900  0.66142800  1
  Sb  Sb26  1  1.00000000  0.66768000  1.00000000  1
  Sb  Sb27  1  0.50000000  0.66768000  0.88621000  1
  Sb  Sb28  1  1.00000000  0.66768000  0.77241000  1
  Sb  Sb29  1  0.00262300  0.65866700  0.54289000  1
  Cl  Cl30  1  0.50592000  0.50203700  0.47204000  1
  O  O31  1  1.00000000  0.17164000  0.95506000  1
  O  O32  1  0.50000000  0.17164000  0.84126000  1
  O  O33  1  0.99980400  0.15525700  0.72934800  1
  O  O34  1  0.49876500  0.17049500  0.61879100  1
  O  O35  1  0.50000000  0.17164000  0.93115000  1
  O  O36  1  1.00000000  0.17164000  0.81736000  1
  O  O37  1  0.50070100  0.16650800  0.70446700  1
  O  O38  1  0.00462100  0.16019500  0.59317300  1
  O  O39  1  0.30253000  0.67164000  1.00000000  1
  O  O40  1  0.80253000  0.67164000  0.88621000  1
  O  O41  1  0.30253000  0.67164000  0.77241000  1
  O  O42  1  0.79173100  0.66478500  0.66145700  1
  O  O43  1  0.31267100  0.64400400  0.55468800  1
  O  O44  1  0.69747000  0.67164000  1.00000000  1
  O  O45  1  0.19747000  0.67164000  0.88621000  1
  O  O46  1  0.69747000  0.67164000  0.77241000  1
  O  O47  1  0.20927600  0.66419200  0.66173000  1
  O  O48  1  0.69331300  0.64478700  0.55504300  1
  O  O49  1  0.30253000  0.32836000  1.00000000  1
  O  O50  1  0.80253000  0.32836000  0.88621000  1
  O  O51  1  0.30253000  0.32836000  0.77241000  1
  O  O52  1  0.81348100  0.33158700  0.66049000  1
  O  O53  1  0.30271900  0.33380800  0.55099700  1
  O  O54  1  0.69747000  0.32836000  1.00000000  1
  O  O55  1  0.19747000  0.32836000  0.88621000  1
  O  O56  1  0.69747000  0.32836000  0.77241000  1
  O  O57  1  0.18766100  0.33211400  0.66110100  1
  O  O58  1  0.70025100  0.33246600  0.55170300  1
  O  O59  1  1.00000000  0.82836000  0.95506000  1
  O  O60  1  0.50000000  0.82836000  0.84126000  1
  O  O61  1  0.99978400  0.84468700  0.72933600  1
  O  O62  1  0.49876900  0.82148600  0.61889600  1
  O  O63  1  0.50000000  0.82836000  0.93115000  1
  O  O64  1  1.00000000  0.82836000  0.81736000  1
  O  O65  1  0.50063100  0.82539400  0.70461900  1
  O  O66  1  0.00285800  0.83557500  0.58267300  1
  O  O67  1  1.00000000  0.50000000  0.95668000  1
  O  O68  1  0.50000000  0.50000000  0.84289000  1
  O  O69  1  0.99950800  0.49998000  0.72830400  1
  O  O70  1  0.50061000  0.50170300  0.61945400  1
  O  O71  1  0.50000000  0.50000000  0.92952000  1
  O  O72  1  1.00000000  0.50000000  0.81573000  1
  O  O73  1  0.50149800  0.50458500  0.70371100  1
  O  O74  1  0.00256700  0.50985500  0.59301400  1
  O  O75  1  0.30966000  0.00000000  0.00000000  1
  O  O76  1  0.80966000  0.00000000  0.88621000  1
  O  O77  1  0.30966000  0.00000000  0.77241000  1
  O  O78  1  0.79670500  0.00024500  0.65939800  1
  O  O79  1  0.31487800  0.03937200  0.54766100  1
  O  O80  1  0.69034000  0.00000000  0.00000000  1
  O  O81  1  0.19034000  0.00000000  0.88621000  1
  O  O82  1  0.69034000  0.00000000  0.77241000  1
  O  O83  1  0.20421000  0.99993500  0.65961900  1
  O  O84  1  0.68846100  0.03655200  0.55028100  1
