# generated using pymatgen
data_MgTiMnVZnCrFeCoCuNiSb20ClO54
_symmetry_space_group_name_H-M   'P 1'
_cell_length_a   6.66419700
_cell_length_b   9.53368900
_cell_length_c   29.17066000
_cell_angle_alpha   89.93687700
_cell_angle_beta   89.96327500
_cell_angle_gamma   89.99813800
_symmetry_Int_Tables_number   1
_chemical_formula_structural   MgTiMnVZnCrFeCoCuNiSb20ClO54
_chemical_formula_sum
'Mg1 Ti1 Mn1 V1 Zn1 Cr1 Fe1 Co1 Cu1 Ni1 Sb20 Cl1 O54'
_cell_volume   1853.33833852
_cell_formula_units_Z   1
loop_
 _symmetry_equiv_pos_site_id
 _symmetry_equiv_pos_as_xyz
  1  'x, y, z'
loop_
 _atom_site_type_symbol
 _atom_site_label
 _atom_site_symmetry_multiplicity
 _atom_site_fract_x
 _atom_site_fract_y
 _atom_site_fract_z
 _atom_site_occupancy
  Mg  Mg0  1  0.99769200  0.80374400  0.33715700  1
  Ti  Ti1  1  0.50084000  0.50187400  0.45047400  1
  Mn  Mn2  1  0.50000000  0.66768000  0.11379000  1
  V  V3  1  0.49806600  0.66419300  0.34059100  1
  Zn  Zn4  1  0.50000000  0.50000000  1.00000000  1
  Cr  Cr5  1  0.00000000  0.83232000  0.11379000  1
  Fe  Fe6  1  0.99934800  0.19671100  0.33769400  1
  Co  Co7  1  0.99974400  0.50584700  0.34289100  1
  Cu  Cu8  1  0.50000000  0.16768000  1.00000000  1
  Ni  Ni9  1  0.50000000  0.33232000  0.11379000  1
  Sb  Sb10  1  0.00000000  0.00000000  0.00000000  1
  Sb  Sb11  1  0.50000000  0.00000000  0.11379000  1
  Sb  Sb12  1  0.00000000  0.00000000  0.22759000  1
  Sb  Sb13  1  0.50005300  0.99382500  0.34835300  1
  Sb  Sb14  1  0.00198600  0.99882300  0.41312300  1
  Sb  Sb15  1  0.00000000  0.50000000  0.11379000  1
  Sb  Sb16  1  0.50000000  0.50000000  0.22759000  1
  Sb  Sb17  1  1.00000000  0.66768000  1.00000000  1
  Sb  Sb18  1  0.00000000  0.66768000  0.22759000  1
  Sb  Sb19  1  0.99933300  0.66692600  0.45994700  1
  Sb  Sb20  1  0.00000000  0.16768000  0.11379000  1
  Sb  Sb21  1  0.50000000  0.16768000  0.22759000  1
  Sb  Sb22  1  0.50038000  0.17706100  0.46140700  1
  Sb  Sb23  1  0.50000000  0.83232000  1.00000000  1
  Sb  Sb24  1  0.50000000  0.83232000  0.22759000  1
  Sb  Sb25  1  0.50069900  0.82771900  0.45898600  1
  Sb  Sb26  1  1.00000000  0.33232000  1.00000000  1
  Sb  Sb27  1  0.00000000  0.33232000  0.22759000  1
  Sb  Sb28  1  0.49941900  0.33901800  0.34307700  1
  Sb  Sb29  1  0.99825700  0.33550400  0.45896400  1
  Cl  Cl30  1  0.51832700  0.47778900  0.53059900  1
  O  O31  1  0.00000000  0.82836000  0.04494000  1
  O  O32  1  0.50000000  0.82836000  0.15874000  1
  O  O33  1  0.99980400  0.84474300  0.27065200  1
  O  O34  1  0.49678000  0.82319400  0.38872300  1
  O  O35  1  0.50000000  0.82836000  0.06885000  1
  O  O36  1  0.00000000  0.82836000  0.18264000  1
  O  O37  1  0.49957000  0.84121100  0.29869700  1
  O  O38  1  0.00283600  0.79413900  0.40618400  1
  O  O39  1  0.30253000  0.32836000  1.00000000  1
  O  O40  1  0.80253000  0.32836000  0.11379000  1
  O  O41  1  0.30253000  0.32836000  0.22759000  1
  O  O42  1  0.79632300  0.34044200  0.33641900  1
  O  O43  1  0.31112700  0.34380200  0.44803800  1
  O  O44  1  0.69747000  0.32836000  1.00000000  1
  O  O45  1  0.19747000  0.32836000  0.11379000  1
  O  O46  1  0.69747000  0.32836000  0.22759000  1
  O  O47  1  0.20310100  0.33916400  0.33552400  1
  O  O48  1  0.68851600  0.34312200  0.44528900  1
  O  O49  1  0.30253000  0.67164000  1.00000000  1
  O  O50  1  0.80253000  0.67164000  0.11379000  1
  O  O51  1  0.30253000  0.67164000  0.22759000  1
  O  O52  1  0.77074900  0.65886800  0.33751400  1
  O  O53  1  0.31260800  0.65379400  0.45245000  1
  O  O54  1  0.69747000  0.67164000  1.00000000  1
  O  O55  1  0.19747000  0.67164000  0.11379000  1
  O  O56  1  0.69747000  0.67164000  0.22759000  1
  O  O57  1  0.22490900  0.65917300  0.33688500  1
  O  O58  1  0.68783900  0.65464000  0.44980900  1
  O  O59  1  0.00000000  0.17164000  0.04494000  1
  O  O60  1  0.50000000  0.17164000  0.15874000  1
  O  O61  1  0.99978400  0.15531300  0.27066400  1
  O  O62  1  0.49795800  0.16800200  0.38955500  1
  O  O63  1  0.50000000  0.17164000  0.06885000  1
  O  O64  1  0.00000000  0.17164000  0.18264000  1
  O  O65  1  0.50176000  0.15747900  0.29940700  1
  O  O66  1  0.00291800  0.20404500  0.40585500  1
  O  O67  1  0.00000000  0.50000000  0.04332000  1
  O  O68  1  0.50000000  0.50000000  0.15711000  1
  O  O69  1  0.99950800  0.50002000  0.27169600  1
  O  O70  1  0.49482300  0.50636800  0.38324800  1
  O  O71  1  0.50000000  0.50000000  0.07048000  1
  O  O72  1  0.00000000  0.50000000  0.18427000  1
  O  O73  1  0.49964400  0.50012500  0.29541900  1
  O  O74  1  0.00164400  0.50214300  0.41594000  1
  O  O75  1  0.30966000  0.00000000  0.00000000  1
  O  O76  1  0.80966000  0.00000000  0.11379000  1
  O  O77  1  0.30966000  0.00000000  0.22759000  1
  O  O78  1  0.81410100  0.00097300  0.35270400  1
  O  O79  1  0.24347400  0.00064100  0.45196600  1
  O  O80  1  0.69034000  0.00000000  0.00000000  1
  O  O81  1  0.19034000  0.00000000  0.11379000  1
  O  O82  1  0.69034000  0.00000000  0.22759000  1
  O  O83  1  0.18525500  0.00155900  0.35236700  1
  O  O84  1  0.75867400  0.00046400  0.45138400  1
