# generated using pymatgen
data_MgTiMnVZnCrFeCoCuNiSb20ClO54
_symmetry_space_group_name_H-M   'P 1'
_cell_length_a   6.66590100
_cell_length_b   9.45785400
_cell_length_c   29.01001200
_cell_angle_alpha   89.75143000
_cell_angle_beta   89.93356700
_cell_angle_gamma   89.99652500
_symmetry_Int_Tables_number   1
_chemical_formula_structural   MgTiMnVZnCrFeCoCuNiSb20ClO54
_chemical_formula_sum
'Mg1 Ti1 Mn1 V1 Zn1 Cr1 Fe1 Co1 Cu1 Ni1 Sb20 Cl1 O54'
_cell_volume   1828.92119858
_cell_formula_units_Z   1
loop_
 _symmetry_equiv_pos_site_id
 _symmetry_equiv_pos_as_xyz
  1  'x, y, z'
loop_
 _atom_site_type_symbol
 _atom_site_label
 _atom_site_symmetry_multiplicity
 _atom_site_fract_x
 _atom_site_fract_y
 _atom_site_fract_z
 _atom_site_occupancy
  Mg  Mg0  1  0.00000000  0.00000000  0.00000000  1
  Ti  Ti1  1  0.50052100  0.49715700  0.43908800  1
  Mn  Mn2  1  0.50000000  0.50000000  1.00000000  1
  V  V3  1  0.00000000  0.00000000  0.22759000  1
  Zn  Zn4  1  0.00000000  0.66768000  0.22759000  1
  Cr  Cr5  1  0.00000000  0.50000000  0.11379000  1
  Fe  Fe6  1  0.00000000  0.16768000  0.11379000  1
  Co  Co7  1  0.49879500  0.65961100  0.33525700  1
  Cu  Cu8  1  0.50000000  0.50000000  0.22759000  1
  Ni  Ni9  1  0.49884400  0.34182800  0.33633700  1
  Sb  Sb10  1  0.50000000  0.00000000  0.11379000  1
  Sb  Sb11  1  0.49977800  0.99913400  0.34446800  1
  Sb  Sb12  1  0.99885800  0.99532000  0.45689200  1
  Sb  Sb13  1  0.99878900  0.49926100  0.33908100  1
  Sb  Sb14  1  0.00000000  0.66768000  1.00000000  1
  Sb  Sb15  1  0.50000000  0.66768000  0.11379000  1
  Sb  Sb16  1  0.99778700  0.66109700  0.45753900  1
  Sb  Sb17  1  0.50000000  0.16768000  1.00000000  1
  Sb  Sb18  1  0.50000000  0.16768000  0.22759000  1
  Sb  Sb19  1  0.00001600  0.17284900  0.34051300  1
  Sb  Sb20  1  0.50281200  0.17090700  0.45460100  1
  Sb  Sb21  1  0.50000000  0.83232000  1.00000000  1
  Sb  Sb22  1  0.00000000  0.83232000  0.11379000  1
  Sb  Sb23  1  0.50000000  0.83232000  0.22759000  1
  Sb  Sb24  1  0.00001700  0.82622500  0.33807600  1
  Sb  Sb25  1  0.50293900  0.82174400  0.45505200  1
  Sb  Sb26  1  0.00000000  0.33232000  1.00000000  1
  Sb  Sb27  1  0.50000000  0.33232000  0.11379000  1
  Sb  Sb28  1  0.00000000  0.33232000  0.22759000  1
  Sb  Sb29  1  0.99711900  0.33508700  0.45836600  1
  Cl  Cl30  1  0.53216800  0.49785600  0.52251700  1
  O  O31  1  0.00000000  0.82836000  0.04494000  1
  O  O32  1  0.50000000  0.82836000  0.15874000  1
  O  O33  1  0.99980400  0.84474300  0.27065200  1
  O  O34  1  0.49541100  0.81963200  0.38136700  1
  O  O35  1  0.50000000  0.82836000  0.06885000  1
  O  O36  1  0.00000000  0.82836000  0.18264000  1
  O  O37  1  0.50106100  0.83932500  0.29760800  1
  O  O38  1  0.00520200  0.82703500  0.40817200  1
  O  O39  1  0.30253000  0.32836000  1.00000000  1
  O  O40  1  0.80253000  0.32836000  0.11379000  1
  O  O41  1  0.30253000  0.32836000  0.22759000  1
  O  O42  1  0.80378200  0.33293800  0.33814200  1
  O  O43  1  0.30364500  0.34429100  0.44300500  1
  O  O44  1  0.69747000  0.32836000  1.00000000  1
  O  O45  1  0.19747000  0.32836000  0.11379000  1
  O  O46  1  0.69747000  0.32836000  0.22759000  1
  O  O47  1  0.19475700  0.33345600  0.33816800  1
  O  O48  1  0.69698500  0.34353200  0.43848400  1
  O  O49  1  0.30253000  0.67164000  1.00000000  1
  O  O50  1  0.80253000  0.67164000  0.11379000  1
  O  O51  1  0.30253000  0.67164000  0.22759000  1
  O  O52  1  0.80257700  0.66468000  0.33871300  1
  O  O53  1  0.30361600  0.65093600  0.44334600  1
  O  O54  1  0.69747000  0.67164000  1.00000000  1
  O  O55  1  0.19747000  0.67164000  0.11379000  1
  O  O56  1  0.69747000  0.67164000  0.22759000  1
  O  O57  1  0.19611500  0.66406300  0.33811600  1
  O  O58  1  0.69762300  0.65212800  0.43895800  1
  O  O59  1  0.00000000  0.17164000  0.04494000  1
  O  O60  1  0.50000000  0.17164000  0.15874000  1
  O  O61  1  0.99978400  0.15531300  0.27066400  1
  O  O62  1  0.49470200  0.17354700  0.38210700  1
  O  O63  1  0.50000000  0.17164000  0.06885000  1
  O  O64  1  0.00000000  0.17164000  0.18264000  1
  O  O65  1  0.50004700  0.16015500  0.29662900  1
  O  O66  1  0.00293200  0.16889600  0.40977500  1
  O  O67  1  0.00000000  0.50000000  0.04332000  1
  O  O68  1  0.50000000  0.50000000  0.15711000  1
  O  O69  1  0.99950800  0.50002000  0.27169600  1
  O  O70  1  0.49565800  0.50521500  0.37502300  1
  O  O71  1  0.50000000  0.50000000  0.07048000  1
  O  O72  1  0.00000000  0.50000000  0.18427000  1
  O  O73  1  0.50040400  0.50771400  0.29568400  1
  O  O74  1  0.00366300  0.49776900  0.40861700  1
  O  O75  1  0.30966000  0.00000000  0.00000000  1
  O  O76  1  0.80966000  0.00000000  0.11379000  1
  O  O77  1  0.30966000  0.00000000  0.22759000  1
  O  O78  1  0.80935800  0.00137400  0.34048800  1
  O  O79  1  0.29793800  0.99647500  0.43917300  1
  O  O80  1  0.69034000  0.00000000  0.00000000  1
  O  O81  1  0.19034000  0.00000000  0.11379000  1
  O  O82  1  0.69034000  0.00000000  0.22759000  1
  O  O83  1  0.19015100  0.00143700  0.34048500  1
  O  O84  1  0.70312500  0.99597200  0.43558800  1
