# generated using pymatgen
data_MgTiMnVZnCrFeCoCuNiSb20ClO54
_symmetry_space_group_name_H-M   'P 1'
_cell_length_a   6.69763500
_cell_length_b   9.48291900
_cell_length_c   29.29972000
_cell_angle_alpha   90.30847400
_cell_angle_beta   89.89162400
_cell_angle_gamma   89.98414200
_symmetry_Int_Tables_number   1
_chemical_formula_structural   MgTiMnVZnCrFeCoCuNiSb20ClO54
_chemical_formula_sum
'Mg1 Ti1 Mn1 V1 Zn1 Cr1 Fe1 Co1 Cu1 Ni1 Sb20 Cl1 O54'
_cell_volume   1860.88655505
_cell_formula_units_Z   1
loop_
 _symmetry_equiv_pos_site_id
 _symmetry_equiv_pos_as_xyz
  1  'x, y, z'
loop_
 _atom_site_type_symbol
 _atom_site_label
 _atom_site_symmetry_multiplicity
 _atom_site_fract_x
 _atom_site_fract_y
 _atom_site_fract_z
 _atom_site_occupancy
  Mg  Mg0  1  0.50000000  0.50000000  0.77241000  1
  Ti  Ti1  1  0.49663300  0.50344800  0.54839400  1
  Mn  Mn2  1  0.50000000  0.16768000  0.77241000  1
  V  V3  1  0.49739100  0.82002000  0.55328600  1
  Zn  Zn4  1  0.99298900  0.50889900  0.66166400  1
  Cr  Cr5  1  0.99975700  0.82909300  0.65838500  1
  Fe  Fe6  1  0.50000000  0.33232000  0.88621000  1
  Co  Co7  1  0.50000000  0.16768000  1.00000000  1
  Cu  Cu8  1  1.00000000  0.33232000  0.77241000  1
  Ni  Ni9  1  0.00000000  0.00000000  0.00000000  1
  Sb  Sb10  1  0.50000000  0.00000000  0.88621000  1
  Sb  Sb11  1  0.00000000  0.00000000  0.77241000  1
  Sb  Sb12  1  0.50268600  0.00163900  0.65926300  1
  Sb  Sb13  1  0.98148300  0.98747700  0.54145600  1
  Sb  Sb14  1  0.50000000  0.50000000  1.00000000  1
  Sb  Sb15  1  0.00000000  0.50000000  0.88621000  1
  Sb  Sb16  1  0.00000000  0.66768000  0.00000000  1
  Sb  Sb17  1  0.50000000  0.66768000  0.88621000  1
  Sb  Sb18  1  0.00000000  0.66768000  0.77241000  1
  Sb  Sb19  1  0.49733200  0.66344200  0.66002100  1
  Sb  Sb20  1  0.00521100  0.66522800  0.54385200  1
  Sb  Sb21  1  0.00000000  0.16768000  0.88621000  1
  Sb  Sb22  1  0.00400500  0.16595000  0.66136600  1
  Sb  Sb23  1  0.48800600  0.17236600  0.54343300  1
  Sb  Sb24  1  0.50000000  0.83232000  1.00000000  1
  Sb  Sb25  1  1.00000000  0.83232000  0.88621000  1
  Sb  Sb26  1  0.50000000  0.83232000  0.77241000  1
  Sb  Sb27  1  0.00000000  0.33232000  0.00000000  1
  Sb  Sb28  1  0.50054900  0.33635300  0.66246300  1
  Sb  Sb29  1  0.00265000  0.33382400  0.54214100  1
  Cl  Cl30  1  0.47313000  0.46972700  0.47011100  1
  O  O31  1  0.00000000  0.82836000  0.95506000  1
  O  O32  1  0.50000000  0.82836000  0.84126000  1
  O  O33  1  0.00019600  0.84474300  0.72934800  1
  O  O34  1  0.49640600  0.83133900  0.61552700  1
  O  O35  1  0.50000000  0.82836000  0.93115000  1
  O  O36  1  0.00000000  0.82836000  0.81736000  1
  O  O37  1  0.49712100  0.83389400  0.70386000  1
  O  O38  1  0.99374400  0.83006500  0.58930600  1
  O  O39  1  0.69747000  0.32836000  1.00000000  1
  O  O40  1  0.19747000  0.32836000  0.88621000  1
  O  O41  1  0.69747000  0.32836000  0.77241000  1
  O  O42  1  0.20041700  0.32749900  0.65684100  1
  O  O43  1  0.68831300  0.33172000  0.55027600  1
  O  O44  1  0.30253000  0.32836000  1.00000000  1
  O  O45  1  0.80253000  0.32836000  0.88621000  1
  O  O46  1  0.30253000  0.32836000  0.77241000  1
  O  O47  1  0.80067900  0.32284500  0.65697400  1
  O  O48  1  0.30746100  0.35666400  0.55794700  1
  O  O49  1  0.69747000  0.67164000  1.00000000  1
  O  O50  1  0.19747000  0.67164000  0.88621000  1
  O  O51  1  0.69747000  0.67164000  0.77241000  1
  O  O52  1  0.19908000  0.67572100  0.65731100  1
  O  O53  1  0.68064000  0.67203800  0.54228100  1
  O  O54  1  0.30253000  0.67164000  1.00000000  1
  O  O55  1  0.80253000  0.67164000  0.88621000  1
  O  O56  1  0.30253000  0.67164000  0.77241000  1
  O  O57  1  0.79619200  0.68074900  0.65902300  1
  O  O58  1  0.31736600  0.65314300  0.55513300  1
  O  O59  1  0.00000000  0.17164000  0.95506000  1
  O  O60  1  0.50000000  0.17164000  0.84126000  1
  O  O61  1  0.00021600  0.15531300  0.72933600  1
  O  O62  1  0.49244000  0.16390800  0.61374600  1
  O  O63  1  0.50000000  0.17164000  0.93115000  1
  O  O64  1  0.00000000  0.17164000  0.81736000  1
  O  O65  1  0.49811300  0.16356800  0.70384700  1
  O  O66  1  0.01473600  0.15797800  0.58563200  1
  O  O67  1  1.00000000  0.50000000  0.95668000  1
  O  O68  1  0.50000000  0.50000000  0.84289000  1
  O  O69  1  0.00049200  0.50002000  0.72830400  1
  O  O70  1  0.52320300  0.50045000  0.61636600  1
  O  O71  1  0.50000000  0.50000000  0.92952000  1
  O  O72  1  0.00000000  0.50000000  0.81573000  1
  O  O73  1  0.49727700  0.50471700  0.70353300  1
  O  O74  1  0.97732300  0.50009800  0.58581000  1
  O  O75  1  0.69034000  1.00000000  1.00000000  1
  O  O76  1  0.19034000  0.00000000  0.88621000  1
  O  O77  1  0.69034000  0.00000000  0.77241000  1
  O  O78  1  0.19571800  0.99281500  0.65696000  1
  O  O79  1  0.67883300  0.98286900  0.55037200  1
  O  O80  1  0.30966000  1.00000000  1.00000000  1
  O  O81  1  0.80966000  0.00000000  0.88621000  1
  O  O82  1  0.30966000  0.00000000  0.77241000  1
  O  O83  1  0.80870800  0.99464800  0.65713000  1
  O  O84  1  0.30930000  0.92743400  0.53416900  1
