# generated using pymatgen
data_MgTiMnVZnCrFeCoCuNiSb20ClO54
_symmetry_space_group_name_H-M   'P 1'
_cell_length_a   6.62392100
_cell_length_b   9.61389400
_cell_length_c   29.34091200
_cell_angle_alpha   90.19434400
_cell_angle_beta   89.98943800
_cell_angle_gamma   89.99560600
_symmetry_Int_Tables_number   1
_chemical_formula_structural   MgTiMnVZnCrFeCoCuNiSb20ClO54
_chemical_formula_sum
'Mg1 Ti1 Mn1 V1 Zn1 Cr1 Fe1 Co1 Cu1 Ni1 Sb20 Cl1 O54'
_cell_volume   1868.46761736
_cell_formula_units_Z   1
loop_
 _symmetry_equiv_pos_site_id
 _symmetry_equiv_pos_as_xyz
  1  'x, y, z'
loop_
 _atom_site_type_symbol
 _atom_site_label
 _atom_site_symmetry_multiplicity
 _atom_site_fract_x
 _atom_site_fract_y
 _atom_site_fract_z
 _atom_site_occupancy
  Mg  Mg0  1  0.00000000  0.66768000  0.00000000  1
  Ti  Ti1  1  0.50069600  0.48873500  0.44451400  1
  Mn  Mn2  1  0.49960100  0.32792100  0.33843800  1
  V  V3  1  0.00015500  0.82409200  0.34439200  1
  Zn  Zn4  1  0.50000000  0.16768000  0.00000000  1
  Cr  Cr5  1  1.00000000  0.33232000  0.00000000  1
  Fe  Fe6  1  0.00009800  0.49613800  0.33820000  1
  Co  Co7  1  0.00000000  0.33232000  0.22759000  1
  Cu  Cu8  1  0.00000000  0.16768000  0.11379000  1
  Ni  Ni9  1  0.00151900  0.99019300  0.44125400  1
  Sb  Sb10  1  0.00000000  0.00000000  0.00000000  1
  Sb  Sb11  1  0.50000000  1.00000000  0.11379000  1
  Sb  Sb12  1  1.00000000  0.00000000  0.22759000  1
  Sb  Sb13  1  0.49958700  0.00055500  0.34490200  1
  Sb  Sb14  1  0.50000000  0.50000000  0.00000000  1
  Sb  Sb15  1  0.00000000  0.50000000  0.11379000  1
  Sb  Sb16  1  0.50000000  0.50000000  0.22759000  1
  Sb  Sb17  1  0.50000000  0.66768000  0.11379000  1
  Sb  Sb18  1  0.00000000  0.66768000  0.22759000  1
  Sb  Sb19  1  0.50040900  0.66430700  0.34304200  1
  Sb  Sb20  1  0.99920500  0.66185300  0.45119700  1
  Sb  Sb21  1  0.50000000  0.16768000  0.22759000  1
  Sb  Sb22  1  0.99993500  0.17069300  0.33928800  1
  Sb  Sb23  1  0.50050500  0.15136800  0.45727800  1
  Sb  Sb24  1  0.50000000  0.83232000  0.00000000  1
  Sb  Sb25  1  0.00000000  0.83232000  0.11379000  1
  Sb  Sb26  1  0.50000000  0.83232000  0.22759000  1
  Sb  Sb27  1  0.50200300  0.81604700  0.46313700  1
  Sb  Sb28  1  0.50000000  0.33232000  0.11379000  1
  Sb  Sb29  1  0.99858000  0.32837700  0.45256200  1
  Cl  Cl30  1  0.51843900  0.52655400  0.52304100  1
  O  O31  1  0.00000000  0.82836000  0.04494000  1
  O  O32  1  0.50000000  0.82836000  0.15874000  1
  O  O33  1  0.99980400  0.84474300  0.27065200  1
  O  O34  1  0.49873800  0.83453000  0.38530600  1
  O  O35  1  0.50000000  0.82836000  0.06885000  1
  O  O36  1  1.00000000  0.82836000  0.18264000  1
  O  O37  1  0.50053800  0.83761300  0.29734400  1
  O  O38  1  0.00112100  0.82233700  0.40394300  1
  O  O39  1  0.30253000  0.32836000  0.00000000  1
  O  O40  1  0.80253000  0.32836000  0.11379000  1
  O  O41  1  0.30253000  0.32836000  0.22759000  1
  O  O42  1  0.79899200  0.32780100  0.33785300  1
  O  O43  1  0.30842600  0.34862400  0.44493100  1
  O  O44  1  0.69747000  0.32836000  0.00000000  1
  O  O45  1  0.19747000  0.32836000  0.11379000  1
  O  O46  1  0.69747000  0.32836000  0.22759000  1
  O  O47  1  0.20030800  0.32822300  0.33756700  1
  O  O48  1  0.69006300  0.34519300  0.44217800  1
  O  O49  1  0.30253000  0.67164000  0.00000000  1
  O  O50  1  0.80253000  0.67164000  0.11379000  1
  O  O51  1  0.30253000  0.67164000  0.22759000  1
  O  O52  1  0.80791400  0.67550000  0.33701300  1
  O  O53  1  0.30960600  0.65569900  0.43773300  1
  O  O54  1  0.69747000  0.67164000  0.00000000  1
  O  O55  1  0.19747000  0.67164000  0.11379000  1
  O  O56  1  0.69747000  0.67164000  0.22759000  1
  O  O57  1  0.19240800  0.67571300  0.33695700  1
  O  O58  1  0.69065800  0.65596400  0.43581400  1
  O  O59  1  0.00000000  0.17164000  0.04494000  1
  O  O60  1  0.50000000  0.17164000  0.15874000  1
  O  O61  1  0.99978400  0.15531300  0.27066400  1
  O  O62  1  0.49709800  0.15862500  0.38690800  1
  O  O63  1  0.50000000  0.17164000  0.06885000  1
  O  O64  1  1.00000000  0.17164000  0.18264000  1
  O  O65  1  0.50005100  0.15809000  0.29819400  1
  O  O66  1  0.00340500  0.16890100  0.40775000  1
  O  O67  1  0.00000000  0.50000000  0.04332000  1
  O  O68  1  0.50000000  0.50000000  0.15711000  1
  O  O69  1  0.99950800  0.50002000  0.27169600  1
  O  O70  1  0.49783500  0.48847500  0.37699800  1
  O  O71  1  0.50000000  0.50000000  0.07048000  1
  O  O72  1  0.00000000  0.50000000  0.18427000  1
  O  O73  1  0.50027600  0.51189000  0.29428000  1
  O  O74  1  0.00119700  0.49516400  0.40802800  1
  O  O75  1  0.30966000  0.00000000  1.00000000  1
  O  O76  1  0.80966000  1.00000000  0.11379000  1
  O  O77  1  0.30966000  0.00000000  0.22759000  1
  O  O78  1  0.80989600  0.99324100  0.33976100  1
  O  O79  1  0.28813100  0.98610800  0.45130500  1
  O  O80  1  0.69034000  1.00000000  0.00000000  1
  O  O81  1  0.19034000  1.00000000  0.11379000  1
  O  O82  1  0.69034000  1.00000000  0.22759000  1
  O  O83  1  0.18954500  0.99290200  0.33941400  1
  O  O84  1  0.71358900  0.98857300  0.45050800  1
