# generated using pymatgen
data_MgTiMnVZnCrFeCoCuNiSb20ClO54
_symmetry_space_group_name_H-M   'P 1'
_cell_length_a   6.67403600
_cell_length_b   9.64881000
_cell_length_c   29.26202000
_cell_angle_alpha   89.83451900
_cell_angle_beta   89.68107100
_cell_angle_gamma   89.96440500
_symmetry_Int_Tables_number   1
_chemical_formula_structural   MgTiMnVZnCrFeCoCuNiSb20ClO54
_chemical_formula_sum
'Mg1 Ti1 Mn1 V1 Zn1 Cr1 Fe1 Co1 Cu1 Ni1 Sb20 Cl1 O54'
_cell_volume   1884.33442866
_cell_formula_units_Z   1
loop_
 _symmetry_equiv_pos_site_id
 _symmetry_equiv_pos_as_xyz
  1  'x, y, z'
loop_
 _atom_site_type_symbol
 _atom_site_label
 _atom_site_symmetry_multiplicity
 _atom_site_fract_x
 _atom_site_fract_y
 _atom_site_fract_z
 _atom_site_occupancy
  Mg  Mg0  1  1.00000000  0.33232000  1.00000000  1
  Ti  Ti1  1  0.50845600  0.49792600  0.45073500  1
  Mn  Mn2  1  0.99711200  0.49033800  0.34180600  1
  V  V3  1  1.00000000  0.50000000  0.11379000  1
  Zn  Zn4  1  0.99308700  0.17802300  0.33907200  1
  Cr  Cr5  1  0.01278000  0.01122300  0.41805500  1
  Fe  Fe6  1  0.50000000  0.83232000  1.00000000  1
  Co  Co7  1  0.49609400  0.99748200  0.34234900  1
  Cu  Cu8  1  0.00000000  0.66768000  1.00000000  1
  Ni  Ni9  1  0.50000000  0.50000000  0.22759000  1
  Sb  Sb10  1  0.00000000  0.00000000  0.00000000  1
  Sb  Sb11  1  0.50000000  0.00000000  0.11379000  1
  Sb  Sb12  1  1.00000000  0.00000000  0.22759000  1
  Sb  Sb13  1  0.50000000  0.50000000  0.00000000  1
  Sb  Sb14  1  0.50000000  0.66768000  0.11379000  1
  Sb  Sb15  1  1.00000000  0.66768000  0.22759000  1
  Sb  Sb16  1  0.49574400  0.66541200  0.33818300  1
  Sb  Sb17  1  0.99332900  0.66473200  0.45998200  1
  Sb  Sb18  1  0.50000000  0.16768000  1.00000000  1
  Sb  Sb19  1  1.00000000  0.16768000  0.11379000  1
  Sb  Sb20  1  0.50000000  0.16768000  0.22759000  1
  Sb  Sb21  1  0.49715600  0.17447900  0.45109500  1
  Sb  Sb22  1  1.00000000  0.83232000  0.11379000  1
  Sb  Sb23  1  0.50000000  0.83232000  0.22759000  1
  Sb  Sb24  1  0.99561900  0.82848900  0.34237900  1
  Sb  Sb25  1  0.49741300  0.82176100  0.45105400  1
  Sb  Sb26  1  0.50000000  0.33232000  0.11379000  1
  Sb  Sb27  1  1.00000000  0.33232000  0.22759000  1
  Sb  Sb28  1  0.49503300  0.33438100  0.33824200  1
  Sb  Sb29  1  0.99389900  0.33243100  0.45833900  1
  Cl  Cl30  1  0.58755400  0.50078800  0.52792900  1
  O  O31  1  1.00000000  0.82836000  0.04494000  1
  O  O32  1  0.50000000  0.82836000  0.15874000  1
  O  O33  1  0.99980400  0.84474300  0.27065200  1
  O  O34  1  0.48511700  0.82442200  0.38303900  1
  O  O35  1  0.50000000  0.82836000  0.06885000  1
  O  O36  1  1.00000000  0.82836000  0.18264000  1
  O  O37  1  0.49816800  0.83519900  0.29638000  1
  O  O38  1  0.01639800  0.80772200  0.41073600  1
  O  O39  1  0.30253000  0.32836000  0.00000000  1
  O  O40  1  0.80253000  0.32836000  0.11379000  1
  O  O41  1  0.30253000  0.32836000  0.22759000  1
  O  O42  1  0.79402300  0.34261500  0.33850100  1
  O  O43  1  0.31538900  0.34901000  0.45330300  1
  O  O44  1  0.69747000  0.32836000  0.00000000  1
  O  O45  1  0.19747000  0.32836000  0.11379000  1
  O  O46  1  0.69747000  0.32836000  0.22759000  1
  O  O47  1  0.19636200  0.34329300  0.33681300  1
  O  O48  1  0.68757500  0.34541300  0.44134900  1
  O  O49  1  0.30253000  0.67164000  0.00000000  1
  O  O50  1  0.80253000  0.67164000  0.11379000  1
  O  O51  1  0.30253000  0.67164000  0.22759000  1
  O  O52  1  0.80381200  0.66381600  0.33863100  1
  O  O53  1  0.31462500  0.65232200  0.45407400  1
  O  O54  1  0.69747000  0.67164000  0.00000000  1
  O  O55  1  0.19747000  0.67164000  0.11379000  1
  O  O56  1  0.69747000  0.67164000  0.22759000  1
  O  O57  1  0.18731800  0.66488500  0.33657800  1
  O  O58  1  0.68893600  0.65680500  0.44178900  1
  O  O59  1  1.00000000  0.17164000  0.04494000  1
  O  O60  1  0.50000000  0.17164000  0.15874000  1
  O  O61  1  0.99978400  0.15531300  0.27066400  1
  O  O62  1  0.48855000  0.17075200  0.38338100  1
  O  O63  1  0.50000000  0.17164000  0.06885000  1
  O  O64  1  1.00000000  0.17164000  0.18264000  1
  O  O65  1  0.49729600  0.16180800  0.29647500  1
  O  O66  1  0.01673600  0.19850500  0.40787900  1
  O  O67  1  1.00000000  0.50000000  0.04332000  1
  O  O68  1  0.50000000  0.50000000  0.15711000  1
  O  O69  1  0.99950800  0.50002000  0.27169600  1
  O  O70  1  0.48590400  0.50359100  0.38192600  1
  O  O71  1  0.50000000  0.50000000  0.07048000  1
  O  O72  1  1.00000000  0.50000000  0.18427000  1
  O  O73  1  0.49952600  0.50439600  0.29462800  1
  O  O74  1  0.00704200  0.50168200  0.41675100  1
  O  O75  1  0.30966000  1.00000000  0.00000000  1
  O  O76  1  0.80966000  0.00000000  0.11379000  1
  O  O77  1  0.30966000  1.00000000  0.22759000  1
  O  O78  1  0.80472600  0.98623900  0.35341600  1
  O  O79  1  0.23021100  0.00801200  0.44945500  1
  O  O80  1  0.69034000  0.00000000  0.00000000  1
  O  O81  1  0.19034000  1.00000000  0.11379000  1
  O  O82  1  0.69034000  0.00000000  0.22759000  1
  O  O83  1  0.18172300  0.99017100  0.35327400  1
  O  O84  1  0.80076500  0.00565400  0.44951300  1
