# generated using pymatgen
data_MgTiMnVZnCrFeCoCuNiSb20ClO54
_symmetry_space_group_name_H-M   'P 1'
_cell_length_a   6.65534800
_cell_length_b   9.46540600
_cell_length_c   29.14871200
_cell_angle_alpha   89.75934400
_cell_angle_beta   89.90835500
_cell_angle_gamma   89.99265200
_symmetry_Int_Tables_number   1
_chemical_formula_structural   MgTiMnVZnCrFeCoCuNiSb20ClO54
_chemical_formula_sum
'Mg1 Ti1 Mn1 V1 Zn1 Cr1 Fe1 Co1 Cu1 Ni1 Sb20 Cl1 O54'
_cell_volume   1836.22119325
_cell_formula_units_Z   1
loop_
 _symmetry_equiv_pos_site_id
 _symmetry_equiv_pos_as_xyz
  1  'x, y, z'
loop_
 _atom_site_type_symbol
 _atom_site_label
 _atom_site_symmetry_multiplicity
 _atom_site_fract_x
 _atom_site_fract_y
 _atom_site_fract_z
 _atom_site_occupancy
  Mg  Mg0  1  0.50000000  0.16768000  0.00000000  1
  Ti  Ti1  1  0.49467500  0.48470200  0.45420500  1
  Mn  Mn2  1  0.50000000  0.16768000  0.22759000  1
  V  V3  1  0.50000000  0.00000000  0.11379000  1
  Zn  Zn4  1  0.50058500  0.00263900  0.33595300  1
  Cr  Cr5  1  0.00000000  0.16768000  0.11379000  1
  Fe  Fe6  1  0.99790500  0.49777900  0.34133100  1
  Co  Co7  1  0.99300700  0.64668500  0.44140300  1
  Cu  Cu8  1  0.00000000  0.50000000  0.11379000  1
  Ni  Ni9  1  0.50000000  0.50000000  0.22759000  1
  Sb  Sb10  1  0.00000000  0.00000000  0.00000000  1
  Sb  Sb11  1  0.00000000  0.00000000  0.22759000  1
  Sb  Sb12  1  0.99242500  0.97829500  0.46430300  1
  Sb  Sb13  1  0.50000000  0.50000000  0.00000000  1
  Sb  Sb14  1  0.00000000  0.33232000  0.00000000  1
  Sb  Sb15  1  0.50000000  0.33232000  0.11379000  1
  Sb  Sb16  1  0.00000000  0.33232000  0.22759000  1
  Sb  Sb17  1  0.49930600  0.32425300  0.33919400  1
  Sb  Sb18  1  0.99790000  0.34496700  0.46177800  1
  Sb  Sb19  1  0.50000000  0.83232000  1.00000000  1
  Sb  Sb20  1  0.00000000  0.83232000  0.11379000  1
  Sb  Sb21  1  0.50000000  0.83232000  0.22759000  1
  Sb  Sb22  1  0.00150300  0.83379900  0.34442400  1
  Sb  Sb23  1  0.49135300  0.80337200  0.44611900  1
  Sb  Sb24  1  0.99829500  0.16513800  0.34577300  1
  Sb  Sb25  1  0.49574600  0.16060300  0.45596300  1
  Sb  Sb26  1  0.00000000  0.66768000  0.00000000  1
  Sb  Sb27  1  0.50000000  0.66768000  0.11379000  1
  Sb  Sb28  1  0.00000000  0.66768000  0.22759000  1
  Sb  Sb29  1  0.50027200  0.66007100  0.33696800  1
  Cl  Cl30  1  0.48375100  0.45782900  0.53242000  1
  O  O31  1  0.00000000  0.17164000  0.04494000  1
  O  O32  1  0.50000000  0.17164000  0.15874000  1
  O  O33  1  0.00019600  0.15525700  0.27065200  1
  O  O34  1  0.50113400  0.16169300  0.38637800  1
  O  O35  1  0.50000000  0.17164000  0.06885000  1
  O  O36  1  0.00000000  0.17164000  0.18264000  1
  O  O37  1  0.49884700  0.17043600  0.29330800  1
  O  O38  1  0.99891000  0.15640800  0.41893200  1
  O  O39  1  0.69747000  0.67164000  0.00000000  1
  O  O40  1  0.19747000  0.67164000  0.11379000  1
  O  O41  1  0.69747000  0.67164000  0.22759000  1
  O  O42  1  0.19239500  0.66613800  0.34019900  1
  O  O43  1  0.70171900  0.65002800  0.45574000  1
  O  O44  1  0.30253000  0.67164000  0.00000000  1
  O  O45  1  0.80253000  0.67164000  0.11379000  1
  O  O46  1  0.30253000  0.67164000  0.22759000  1
  O  O47  1  0.80601400  0.66921400  0.33988800  1
  O  O48  1  0.28818900  0.64634600  0.45416600  1
  O  O49  1  0.69747000  0.32836000  0.00000000  1
  O  O50  1  0.19747000  0.32836000  0.11379000  1
  O  O51  1  0.69747000  0.32836000  0.22759000  1
  O  O52  1  0.19357400  0.33001500  0.34105800  1
  O  O53  1  0.68666400  0.34232700  0.44894700  1
  O  O54  1  0.30253000  0.32836000  0.00000000  1
  O  O55  1  0.80253000  0.32836000  0.11379000  1
  O  O56  1  0.30253000  0.32836000  0.22759000  1
  O  O57  1  0.80334900  0.32736100  0.33920200  1
  O  O58  1  0.30382400  0.34442800  0.44515400  1
  O  O59  1  0.00000000  0.82836000  0.04494000  1
  O  O60  1  0.50000000  0.82836000  0.15874000  1
  O  O61  1  0.00021600  0.84468700  0.27066400  1
  O  O62  1  0.49437200  0.82380700  0.38015300  1
  O  O63  1  0.50000000  0.82836000  0.06885000  1
  O  O64  1  0.00000000  0.82836000  0.18264000  1
  O  O65  1  0.49803200  0.82738000  0.29510200  1
  O  O66  1  0.00685400  0.83566500  0.41353900  1
  O  O67  1  0.00000000  0.50000000  0.04332000  1
  O  O68  1  0.50000000  0.50000000  0.15711000  1
  O  O69  1  0.00049200  0.49998000  0.27169600  1
  O  O70  1  0.50294000  0.49846000  0.38260300  1
  O  O71  1  0.50000000  0.50000000  0.07048000  1
  O  O72  1  0.00000000  0.50000000  0.18427000  1
  O  O73  1  0.50053300  0.49570000  0.29521600  1
  O  O74  1  0.98565300  0.47612800  0.40856600  1
  O  O75  1  0.69034000  1.00000000  0.00000000  1
  O  O76  1  0.19034000  0.00000000  0.11379000  1
  O  O77  1  0.69034000  1.00000000  0.22759000  1
  O  O78  1  0.19180300  0.00097500  0.34167300  1
  O  O79  1  0.68260000  0.96876800  0.45338900  1
  O  O80  1  0.30966000  0.00000000  1.00000000  1
  O  O81  1  0.80966000  1.00000000  0.11379000  1
  O  O82  1  0.30966000  0.00000000  0.22759000  1
  O  O83  1  0.80798700  0.99859400  0.34235200  1
  O  O84  1  0.30694600  0.96595700  0.45960000  1
