# generated using pymatgen
data_MgTiMnVZnCrFeCoCuNiSb20ClO54
_symmetry_space_group_name_H-M   'P 1'
_cell_length_a   6.68221100
_cell_length_b   9.44318400
_cell_length_c   28.78989200
_cell_angle_alpha   89.86715900
_cell_angle_beta   89.92739200
_cell_angle_gamma   89.99658200
_symmetry_Int_Tables_number   1
_chemical_formula_structural   MgTiMnVZnCrFeCoCuNiSb20ClO54
_chemical_formula_sum
'Mg1 Ti1 Mn1 V1 Zn1 Cr1 Fe1 Co1 Cu1 Ni1 Sb20 Cl1 O54'
_cell_volume   1816.67464955
_cell_formula_units_Z   1
loop_
 _symmetry_equiv_pos_site_id
 _symmetry_equiv_pos_as_xyz
  1  'x, y, z'
loop_
 _atom_site_type_symbol
 _atom_site_label
 _atom_site_symmetry_multiplicity
 _atom_site_fract_x
 _atom_site_fract_y
 _atom_site_fract_z
 _atom_site_occupancy
  Mg  Mg0  1  0.50000000  0.83232000  1.00000000  1
  Ti  Ti1  1  0.49997300  0.49708900  0.45685900  1
  Mn  Mn2  1  1.00000000  0.66768000  0.22759000  1
  V  V3  1  1.00000000  0.16768000  0.11379000  1
  Zn  Zn4  1  0.99985700  0.16692400  0.33991300  1
  Cr  Cr5  1  0.50000000  0.66768000  0.11379000  1
  Fe  Fe6  1  1.00000000  0.33232000  0.22759000  1
  Co  Co7  1  0.50000000  0.16768000  0.22759000  1
  Cu  Cu8  1  0.00186300  0.00578100  0.44338900  1
  Ni  Ni9  1  0.50000000  1.00000000  0.11379000  1
  Sb  Sb10  1  0.00000000  0.00000000  0.00000000  1
  Sb  Sb11  1  1.00000000  1.00000000  0.22759000  1
  Sb  Sb12  1  0.49970200  0.00272600  0.34601700  1
  Sb  Sb13  1  0.50000000  0.50000000  1.00000000  1
  Sb  Sb14  1  1.00000000  0.50000000  0.11379000  1
  Sb  Sb15  1  0.50000000  0.50000000  0.22759000  1
  Sb  Sb16  1  0.00036600  0.49184200  0.33993700  1
  Sb  Sb17  1  0.00000000  0.66768000  0.00000000  1
  Sb  Sb18  1  0.50004900  0.66829700  0.34740100  1
  Sb  Sb19  1  0.99863300  0.66970500  0.45812300  1
  Sb  Sb20  1  0.50000000  0.16768000  1.00000000  1
  Sb  Sb21  1  0.50192300  0.16167700  0.46677400  1
  Sb  Sb22  1  1.00000000  0.83232000  0.11379000  1
  Sb  Sb23  1  0.50000000  0.83232000  0.22759000  1
  Sb  Sb24  1  0.00013300  0.84001700  0.34169200  1
  Sb  Sb25  1  0.50128900  0.82826900  0.46960500  1
  Sb  Sb26  1  1.00000000  0.33232000  0.00000000  1
  Sb  Sb27  1  0.50000000  0.33232000  0.11379000  1
  Sb  Sb28  1  0.49993600  0.32964700  0.34187100  1
  Sb  Sb29  1  0.99861100  0.32469900  0.45848300  1
  Cl  Cl30  1  0.51579800  0.51984700  0.53601100  1
  O  O31  1  1.00000000  0.82836000  0.04494000  1
  O  O32  1  0.50000000  0.82836000  0.15874000  1
  O  O33  1  0.99980400  0.84474300  0.27065200  1
  O  O34  1  0.49759900  0.83650000  0.39014000  1
  O  O35  1  0.50000000  0.82836000  0.06885000  1
  O  O36  1  1.00000000  0.82836000  0.18264000  1
  O  O37  1  0.50115600  0.83300200  0.29968900  1
  O  O38  1  0.00529700  0.82155200  0.41019400  1
  O  O39  1  0.30253000  0.32836000  1.00000000  1
  O  O40  1  0.80253000  0.32836000  0.11379000  1
  O  O41  1  0.30253000  0.32836000  0.22759000  1
  O  O42  1  0.79804400  0.33740100  0.34149900  1
  O  O43  1  0.31093400  0.35063300  0.45271600  1
  O  O44  1  0.69747000  0.32836000  1.00000000  1
  O  O45  1  0.19747000  0.32836000  0.11379000  1
  O  O46  1  0.69747000  0.32836000  0.22759000  1
  O  O47  1  0.20189500  0.33711000  0.34076300  1
  O  O48  1  0.68806400  0.35059900  0.44998300  1
  O  O49  1  0.30253000  0.67164000  1.00000000  1
  O  O50  1  0.80253000  0.67164000  0.11379000  1
  O  O51  1  0.30253000  0.67164000  0.22759000  1
  O  O52  1  0.80675500  0.66710800  0.34056600  1
  O  O53  1  0.31133200  0.65719100  0.44786200  1
  O  O54  1  0.69747000  0.67164000  1.00000000  1
  O  O55  1  0.19747000  0.67164000  0.11379000  1
  O  O56  1  0.69747000  0.67164000  0.22759000  1
  O  O57  1  0.19368800  0.66720400  0.34015600  1
  O  O58  1  0.68815200  0.65739000  0.44562300  1
  O  O59  1  1.00000000  0.17164000  0.04494000  1
  O  O60  1  0.50000000  0.17164000  0.15874000  1
  O  O61  1  0.99978400  0.15531300  0.27066400  1
  O  O62  1  0.49790000  0.16954200  0.39017500  1
  O  O63  1  0.50000000  0.17164000  0.06885000  1
  O  O64  1  1.00000000  0.17164000  0.18264000  1
  O  O65  1  0.50134400  0.16217400  0.29908300  1
  O  O66  1  0.00226200  0.18351000  0.41028800  1
  O  O67  1  1.00000000  0.50000000  0.04332000  1
  O  O68  1  0.50000000  0.50000000  0.15711000  1
  O  O69  1  0.99950800  0.50002000  0.27169600  1
  O  O70  1  0.49462700  0.49385300  0.38533600  1
  O  O71  1  0.50000000  0.50000000  0.07048000  1
  O  O72  1  1.00000000  0.50000000  0.18427000  1
  O  O73  1  0.50205700  0.50561500  0.29866400  1
  O  O74  1  0.00191400  0.50032600  0.41171900  1
  O  O75  1  0.30966000  1.00000000  1.00000000  1
  O  O76  1  0.80966000  1.00000000  0.11379000  1
  O  O77  1  0.30966000  1.00000000  0.22759000  1
  O  O78  1  0.79875600  0.99430300  0.34395400  1
  O  O79  1  0.29201500  0.99684600  0.45457900  1
  O  O80  1  0.69034000  1.00000000  1.00000000  1
  O  O81  1  0.19034000  1.00000000  0.11379000  1
  O  O82  1  0.69034000  1.00000000  0.22759000  1
  O  O83  1  0.20090600  0.99481000  0.34335900  1
  O  O84  1  0.71068300  0.99633100  0.45347100  1
