# generated using pymatgen
data_MgTiMnVZnCrFeCoCuNiSb20ClO54
_symmetry_space_group_name_H-M   'P 1'
_cell_length_a   6.63382000
_cell_length_b   9.50377800
_cell_length_c   29.33540100
_cell_angle_alpha   89.97310900
_cell_angle_beta   89.94591700
_cell_angle_gamma   89.99705800
_symmetry_Int_Tables_number   1
_chemical_formula_structural   MgTiMnVZnCrFeCoCuNiSb20ClO54
_chemical_formula_sum
'Mg1 Ti1 Mn1 V1 Zn1 Cr1 Fe1 Co1 Cu1 Ni1 Sb20 Cl1 O54'
_cell_volume   1849.48900424
_cell_formula_units_Z   1
loop_
 _symmetry_equiv_pos_site_id
 _symmetry_equiv_pos_as_xyz
  1  'x, y, z'
loop_
 _atom_site_type_symbol
 _atom_site_label
 _atom_site_symmetry_multiplicity
 _atom_site_fract_x
 _atom_site_fract_y
 _atom_site_fract_z
 _atom_site_occupancy
  Mg  Mg0  1  0.50000000  0.16768000  0.77241000  1
  Ti  Ti1  1  0.50239600  0.51202900  0.55118900  1
  Mn  Mn2  1  0.00281800  0.66822900  0.56215400  1
  V  V3  1  0.50000000  0.33232000  0.88621000  1
  Zn  Zn4  1  0.50263300  0.82058900  0.55739600  1
  Cr  Cr5  1  0.50000000  0.50000000  0.77241000  1
  Fe  Fe6  1  0.00000000  0.16768000  0.88621000  1
  Co  Co7  1  0.50081600  0.66479700  0.66408000  1
  Cu  Cu8  1  0.00000000  0.83232000  0.88621000  1
  Ni  Ni9  1  0.00091200  0.83063800  0.66003100  1
  Sb  Sb10  1  0.00000000  0.00000000  0.00000000  1
  Sb  Sb11  1  0.50000000  0.00000000  0.88621000  1
  Sb  Sb12  1  0.00000000  0.00000000  0.77241000  1
  Sb  Sb13  1  0.50044000  0.99737700  0.65820700  1
  Sb  Sb14  1  0.00243800  0.98766200  0.54327400  1
  Sb  Sb15  1  0.50000000  0.50000000  0.00000000  1
  Sb  Sb16  1  0.00000000  0.50000000  0.88621000  1
  Sb  Sb17  1  0.00024000  0.51418900  0.65870500  1
  Sb  Sb18  1  0.00000000  0.33232000  0.00000000  1
  Sb  Sb19  1  0.00000000  0.33232000  0.77241000  1
  Sb  Sb20  1  0.50043900  0.33907400  0.66090200  1
  Sb  Sb21  1  0.00164900  0.33811100  0.54259200  1
  Sb  Sb22  1  0.50000000  0.83232000  0.00000000  1
  Sb  Sb23  1  0.50000000  0.83232000  0.77241000  1
  Sb  Sb24  1  0.50000000  0.16768000  0.00000000  1
  Sb  Sb25  1  0.00033900  0.15939100  0.65733100  1
  Sb  Sb26  1  0.50263100  0.16419200  0.54087600  1
  Sb  Sb27  1  0.00000000  0.66768000  0.00000000  1
  Sb  Sb28  1  0.50000000  0.66768000  0.88621000  1
  Sb  Sb29  1  0.00000000  0.66768000  0.77241000  1
  Cl  Cl30  1  0.50484800  0.48677000  0.47286800  1
  O  O31  1  0.00000000  0.17164000  0.95506000  1
  O  O32  1  0.50000000  0.17164000  0.84126000  1
  O  O33  1  0.99980400  0.15525700  0.72934800  1
  O  O34  1  0.50085700  0.17162200  0.61521400  1
  O  O35  1  0.50000000  0.17164000  0.93115000  1
  O  O36  1  0.00000000  0.17164000  0.81736000  1
  O  O37  1  0.50022100  0.16685800  0.70120700  1
  O  O38  1  0.00287300  0.16851900  0.58844800  1
  O  O39  1  0.30253000  0.67164000  0.00000000  1
  O  O40  1  0.80253000  0.67164000  0.88621000  1
  O  O41  1  0.30253000  0.67164000  0.77241000  1
  O  O42  1  0.80030800  0.66720800  0.66245900  1
  O  O43  1  0.28549900  0.65498600  0.55091000  1
  O  O44  1  0.69747000  0.67164000  0.00000000  1
  O  O45  1  0.19747000  0.67164000  0.88621000  1
  O  O46  1  0.69747000  0.67164000  0.77241000  1
  O  O47  1  0.20126900  0.66657700  0.66249700  1
  O  O48  1  0.72047100  0.65464500  0.55084200  1
  O  O49  1  0.30253000  0.32836000  0.00000000  1
  O  O50  1  0.80253000  0.32836000  0.88621000  1
  O  O51  1  0.30253000  0.32836000  0.77241000  1
  O  O52  1  0.81345100  0.33251300  0.66245800  1
  O  O53  1  0.31075200  0.35047300  0.55690800  1
  O  O54  1  0.69747000  0.32836000  0.00000000  1
  O  O55  1  0.19747000  0.32836000  0.88621000  1
  O  O56  1  0.69747000  0.32836000  0.77241000  1
  O  O57  1  0.18715200  0.33256600  0.66238200  1
  O  O58  1  0.69512200  0.34980400  0.55756700  1
  O  O59  1  0.00000000  0.82836000  0.95506000  1
  O  O60  1  0.50000000  0.82836000  0.84126000  1
  O  O61  1  0.99978400  0.84468700  0.72933600  1
  O  O62  1  0.50216300  0.82110000  0.62362000  1
  O  O63  1  0.50000000  0.82836000  0.93115000  1
  O  O64  1  0.00000000  0.82836000  0.81736000  1
  O  O65  1  0.50024400  0.83678000  0.70534800  1
  O  O66  1  0.00305400  0.83959300  0.59100700  1
  O  O67  1  0.00000000  0.50000000  0.95668000  1
  O  O68  1  0.50000000  0.50000000  0.84289000  1
  O  O69  1  0.99950800  0.49998000  0.72830400  1
  O  O70  1  0.50270000  0.50456000  0.62064100  1
  O  O71  1  0.50000000  0.50000000  0.92952000  1
  O  O72  1  0.00000000  0.50000000  0.81573000  1
  O  O73  1  0.50012100  0.49879600  0.70624100  1
  O  O74  1  0.00401400  0.48899900  0.59144600  1
  O  O75  1  0.30966000  0.00000000  0.00000000  1
  O  O76  1  0.80966000  0.00000000  0.88621000  1
  O  O77  1  0.30966000  0.00000000  0.77241000  1
  O  O78  1  0.80667600  0.00153700  0.65978700  1
  O  O79  1  0.31120000  0.99382900  0.55473600  1
  O  O80  1  0.69034000  0.00000000  0.00000000  1
  O  O81  1  0.19034000  0.00000000  0.88621000  1
  O  O82  1  0.69034000  0.00000000  0.77241000  1
  O  O83  1  0.19430900  0.00156200  0.65975000  1
  O  O84  1  0.69395400  0.99425800  0.55530300  1
