# generated using pymatgen
data_MgTiMnVZnCrFeCoCuNiSb20ClO54
_symmetry_space_group_name_H-M   'P 1'
_cell_length_a   6.73734400
_cell_length_b   9.63177900
_cell_length_c   29.13663800
_cell_angle_alpha   89.90919400
_cell_angle_beta   90.51249900
_cell_angle_gamma   89.92740100
_symmetry_Int_Tables_number   1
_chemical_formula_structural   MgTiMnVZnCrFeCoCuNiSb20ClO54
_chemical_formula_sum
'Mg1 Ti1 Mn1 V1 Zn1 Cr1 Fe1 Co1 Cu1 Ni1 Sb20 Cl1 O54'
_cell_volume   1890.67287646
_cell_formula_units_Z   1
loop_
 _symmetry_equiv_pos_site_id
 _symmetry_equiv_pos_as_xyz
  1  'x, y, z'
loop_
 _atom_site_type_symbol
 _atom_site_label
 _atom_site_symmetry_multiplicity
 _atom_site_fract_x
 _atom_site_fract_y
 _atom_site_fract_z
 _atom_site_occupancy
  Mg  Mg0  1  0.50000000  0.66768000  0.88621000  1
  Ti  Ti1  1  0.45989400  0.46370200  0.54888900  1
  Mn  Mn2  1  1.00000000  0.33232000  0.77241000  1
  V  V3  1  1.00000000  0.66768000  0.00000000  1
  Zn  Zn4  1  0.98636600  0.83422000  0.65796600  1
  Cr  Cr5  1  0.05002400  0.66570600  0.55948300  1
  Fe  Fe6  1  0.49113000  0.33154200  0.65867100  1
  Co  Co7  1  0.00000000  0.16768000  0.88621000  1
  Cu  Cu8  1  0.55502000  0.90432100  0.55598500  1
  Ni  Ni9  1  0.49200500  0.17034800  0.55028600  1
  Sb  Sb10  1  0.00000000  0.00000000  0.00000000  1
  Sb  Sb11  1  0.50000000  0.00000000  0.88621000  1
  Sb  Sb12  1  1.00000000  0.00000000  0.77241000  1
  Sb  Sb13  1  0.48892600  0.00670400  0.65587600  1
  Sb  Sb14  1  0.01242100  0.99226800  0.53987500  1
  Sb  Sb15  1  0.50000000  0.50000000  1.00000000  1
  Sb  Sb16  1  0.00000000  0.50000000  0.88621000  1
  Sb  Sb17  1  0.50000000  0.50000000  0.77241000  1
  Sb  Sb18  1  0.98794000  0.49761600  0.65979700  1
  Sb  Sb19  1  0.00000000  0.33232000  0.00000000  1
  Sb  Sb20  1  0.50000000  0.33232000  0.88621000  1
  Sb  Sb21  1  0.95563800  0.33054400  0.54134200  1
  Sb  Sb22  1  0.50000000  0.83232000  1.00000000  1
  Sb  Sb23  1  0.00000000  0.83232000  0.88621000  1
  Sb  Sb24  1  0.50000000  0.83232000  0.77241000  1
  Sb  Sb25  1  0.50000000  0.16768000  1.00000000  1
  Sb  Sb26  1  0.50000000  0.16768000  0.77241000  1
  Sb  Sb27  1  0.99273700  0.16453400  0.65841800  1
  Sb  Sb28  1  0.00000000  0.66768000  0.77241000  1
  Sb  Sb29  1  0.49053800  0.66017800  0.65611400  1
  Cl  Cl30  1  0.55892800  0.51320000  0.47674000  1
  O  O31  1  0.00000000  0.17164000  0.95506000  1
  O  O32  1  0.50000000  0.17164000  0.84126000  1
  O  O33  1  0.99980400  0.15525700  0.72934800  1
  O  O34  1  0.48486300  0.17139900  0.61654900  1
  O  O35  1  0.50000000  0.17164000  0.93115000  1
  O  O36  1  0.00000000  0.17164000  0.81736000  1
  O  O37  1  0.49313100  0.16183100  0.70383000  1
  O  O38  1  0.98874200  0.16626100  0.58767400  1
  O  O39  1  0.30253000  0.67164000  1.00000000  1
  O  O40  1  0.80253000  0.67164000  0.88621000  1
  O  O41  1  0.30253000  0.67164000  0.77241000  1
  O  O42  1  0.79508000  0.65962700  0.66115200  1
  O  O43  1  0.28862900  0.63227100  0.54696200  1
  O  O44  1  0.69747000  0.67164000  1.00000000  1
  O  O45  1  0.19747000  0.67164000  0.88621000  1
  O  O46  1  0.69747000  0.67164000  0.77241000  1
  O  O47  1  0.18438800  0.65680600  0.65689000  1
  O  O48  1  0.90012800  0.67905900  0.51670100  1
  O  O49  1  0.30253000  0.32836000  1.00000000  1
  O  O50  1  0.80253000  0.32836000  0.88621000  1
  O  O51  1  0.30253000  0.32836000  0.77241000  1
  O  O52  1  0.80035200  0.33084300  0.65987300  1
  O  O53  1  0.28027000  0.32903100  0.54798700  1
  O  O54  1  0.69747000  0.32836000  1.00000000  1
  O  O55  1  0.19747000  0.32836000  0.88621000  1
  O  O56  1  0.69747000  0.32836000  0.77241000  1
  O  O57  1  0.18055100  0.33315000  0.65891800  1
  O  O58  1  0.66499200  0.33175100  0.55664900  1
  O  O59  1  0.00000000  0.82836000  0.95506000  1
  O  O60  1  0.50000000  0.82836000  0.84126000  1
  O  O61  1  0.99978400  0.84468700  0.72933600  1
  O  O62  1  0.49139600  0.83126100  0.61491900  1
  O  O63  1  0.50000000  0.82836000  0.93115000  1
  O  O64  1  0.00000000  0.82836000  0.81736000  1
  O  O65  1  0.49316300  0.83394300  0.70220600  1
  O  O66  1  0.01382600  0.82989300  0.58839700  1
  O  O67  1  1.00000000  0.50000000  0.95668000  1
  O  O68  1  0.50000000  0.50000000  0.84289000  1
  O  O69  1  0.99950800  0.49998000  0.72830400  1
  O  O70  1  0.49802800  0.50108200  0.61402100  1
  O  O71  1  0.50000000  0.50000000  0.92952000  1
  O  O72  1  1.00000000  0.50000000  0.81573000  1
  O  O73  1  0.49317400  0.49936300  0.70223100  1
  O  O74  1  0.97299200  0.50108800  0.58881600  1
  O  O75  1  0.30966000  0.00000000  1.00000000  1
  O  O76  1  0.80966000  0.00000000  0.88621000  1
  O  O77  1  0.30966000  0.00000000  0.77241000  1
  O  O78  1  0.79486400  0.00642900  0.65747300  1
  O  O79  1  0.31132100  0.02287600  0.54022100  1
  O  O80  1  0.69034000  0.00000000  1.00000000  1
  O  O81  1  0.19034000  0.00000000  0.88621000  1
  O  O82  1  0.69034000  0.00000000  0.77241000  1
  O  O83  1  0.18664700  0.00510200  0.65783900  1
  O  O84  1  0.70575500  0.04991000  0.53208700  1
