# generated using pymatgen
data_MgTiMnVZnCrFeCoCuNiSb20ClO54
_symmetry_space_group_name_H-M   'P 1'
_cell_length_a   6.66457200
_cell_length_b   9.54252200
_cell_length_c   28.62776700
_cell_angle_alpha   89.96121400
_cell_angle_beta   89.97798600
_cell_angle_gamma   89.99445600
_symmetry_Int_Tables_number   1
_chemical_formula_structural   MgTiMnVZnCrFeCoCuNiSb20ClO54
_chemical_formula_sum
'Mg1 Ti1 Mn1 V1 Zn1 Cr1 Fe1 Co1 Cu1 Ni1 Sb20 Cl1 O54'
_cell_volume   1820.63452604
_cell_formula_units_Z   1
loop_
 _symmetry_equiv_pos_site_id
 _symmetry_equiv_pos_as_xyz
  1  'x, y, z'
loop_
 _atom_site_type_symbol
 _atom_site_label
 _atom_site_symmetry_multiplicity
 _atom_site_fract_x
 _atom_site_fract_y
 _atom_site_fract_z
 _atom_site_occupancy
  Mg  Mg0  1  0.00000000  0.66768000  0.77241000  1
  Ti  Ti1  1  0.49852600  0.48909400  0.54602600  1
  Mn  Mn2  1  0.50000000  0.16768000  1.00000000  1
  V  V3  1  0.50000000  0.83232000  0.77241000  1
  Zn  Zn4  1  0.99786900  0.34240400  0.55220600  1
  Cr  Cr5  1  0.50000000  0.66768000  0.88621000  1
  Fe  Fe6  1  0.00000000  0.00000000  0.00000000  1
  Co  Co7  1  0.50023300  0.33343200  0.65738500  1
  Cu  Cu8  1  0.50000000  0.00000000  0.88621000  1
  Ni  Ni9  1  1.00000000  0.33232000  1.00000000  1
  Sb  Sb10  1  0.00000000  0.00000000  0.77241000  1
  Sb  Sb11  1  0.50025600  0.00728100  0.65385100  1
  Sb  Sb12  1  0.99968200  0.01257600  0.53304100  1
  Sb  Sb13  1  0.50000000  0.50000000  1.00000000  1
  Sb  Sb14  1  0.00000000  0.50000000  0.88621000  1
  Sb  Sb15  1  0.50000000  0.50000000  0.77241000  1
  Sb  Sb16  1  0.99962900  0.49619300  0.65978500  1
  Sb  Sb17  1  0.00000000  0.66768000  1.00000000  1
  Sb  Sb18  1  0.50018700  0.66021600  0.65777200  1
  Sb  Sb19  1  0.99987900  0.64281600  0.53511300  1
  Sb  Sb20  1  1.00000000  0.16768000  0.88621000  1
  Sb  Sb21  1  0.50000000  0.16768000  0.77241000  1
  Sb  Sb22  1  0.99994100  0.17268300  0.65409800  1
  Sb  Sb23  1  0.49816000  0.16385500  0.53841500  1
  Sb  Sb24  1  0.50000000  0.83232000  1.00000000  1
  Sb  Sb25  1  0.00000000  0.83232000  0.88621000  1
  Sb  Sb26  1  0.00127900  0.83304400  0.65648300  1
  Sb  Sb27  1  0.49665700  0.81410600  0.53166300  1
  Sb  Sb28  1  0.50000000  0.33232000  0.88621000  1
  Sb  Sb29  1  1.00000000  0.33232000  0.77241000  1
  Cl  Cl30  1  0.49112300  0.54416500  0.46538300  1
  O  O31  1  0.00000000  0.82836000  0.95506000  1
  O  O32  1  0.50000000  0.82836000  0.84126000  1
  O  O33  1  0.00019600  0.84474300  0.72934800  1
  O  O34  1  0.50177400  0.83013400  0.61398900  1
  O  O35  1  0.50000000  0.82836000  0.93115000  1
  O  O36  1  0.00000000  0.82836000  0.81736000  1
  O  O37  1  0.49898300  0.83658900  0.70171000  1
  O  O38  1  0.99816400  0.82953400  0.56531000  1
  O  O39  1  0.69747000  0.32836000  1.00000000  1
  O  O40  1  0.19747000  0.32836000  0.88621000  1
  O  O41  1  0.69747000  0.32836000  0.77241000  1
  O  O42  1  0.19423300  0.33252900  0.65929400  1
  O  O43  1  0.70741400  0.35768900  0.54155000  1
  O  O44  1  0.30253000  0.32836000  1.00000000  1
  O  O45  1  0.80253000  0.32836000  0.88621000  1
  O  O46  1  0.30253000  0.32836000  0.77241000  1
  O  O47  1  0.80580800  0.33230000  0.65969000  1
  O  O48  1  0.28865800  0.35844800  0.54237400  1
  O  O49  1  0.69747000  0.67164000  1.00000000  1
  O  O50  1  0.19747000  0.67164000  0.88621000  1
  O  O51  1  0.69747000  0.67164000  0.77241000  1
  O  O52  1  0.20071900  0.65328400  0.66563100  1
  O  O53  1  0.69010300  0.65674300  0.55246100  1
  O  O54  1  0.30253000  0.67164000  1.00000000  1
  O  O55  1  0.80253000  0.67164000  0.88621000  1
  O  O56  1  0.30253000  0.67164000  0.77241000  1
  O  O57  1  0.79991500  0.65422800  0.66572200  1
  O  O58  1  0.30709100  0.65702200  0.55442300  1
  O  O59  1  1.00000000  0.17164000  0.95506000  1
  O  O60  1  0.50000000  0.17164000  0.84126000  1
  O  O61  1  0.00021600  0.15531300  0.72933600  1
  O  O62  1  0.50247200  0.17414800  0.61137000  1
  O  O63  1  0.50000000  0.17164000  0.93115000  1
  O  O64  1  1.00000000  0.17164000  0.81736000  1
  O  O65  1  0.50016800  0.16646800  0.70239500  1
  O  O66  1  0.99597700  0.16100100  0.58597400  1
  O  O67  1  0.00000000  0.50000000  0.95668000  1
  O  O68  1  0.50000000  0.50000000  0.84289000  1
  O  O69  1  0.00049200  0.50002000  0.72830400  1
  O  O70  1  0.50189100  0.49732200  0.61574000  1
  O  O71  1  0.50000000  0.50000000  0.92952000  1
  O  O72  1  0.00000000  0.50000000  0.81573000  1
  O  O73  1  0.50021500  0.49388500  0.70318800  1
  O  O74  1  0.99621400  0.51355200  0.59232400  1
  O  O75  1  0.69034000  1.00000000  0.00000000  1
  O  O76  1  0.19034000  0.00000000  0.88621000  1
  O  O77  1  0.69034000  1.00000000  0.77241000  1
  O  O78  1  0.20112900  0.01886300  0.66144800  1
  O  O79  1  0.69625100  0.99631100  0.55185800  1
  O  O80  1  0.30966000  0.00000000  1.00000000  1
  O  O81  1  0.80966000  1.00000000  0.88621000  1
  O  O82  1  0.30966000  0.00000000  0.77241000  1
  O  O83  1  0.79953200  0.01783000  0.66162600  1
  O  O84  1  0.30081800  0.99738500  0.55386800  1
