# generated using pymatgen
data_MgTiMnVZnCrFeCoCuNiSb20ClO54
_symmetry_space_group_name_H-M   'P 1'
_cell_length_a   6.61940800
_cell_length_b   9.65560500
_cell_length_c   29.32666100
_cell_angle_alpha   90.15806100
_cell_angle_beta   89.97374900
_cell_angle_gamma   89.99875100
_symmetry_Int_Tables_number   1
_chemical_formula_structural   MgTiMnVZnCrFeCoCuNiSb20ClO54
_chemical_formula_sum
'Mg1 Ti1 Mn1 V1 Zn1 Cr1 Fe1 Co1 Cu1 Ni1 Sb20 Cl1 O54'
_cell_volume   1874.38828907
_cell_formula_units_Z   1
loop_
 _symmetry_equiv_pos_site_id
 _symmetry_equiv_pos_as_xyz
  1  'x, y, z'
loop_
 _atom_site_type_symbol
 _atom_site_label
 _atom_site_symmetry_multiplicity
 _atom_site_fract_x
 _atom_site_fract_y
 _atom_site_fract_z
 _atom_site_occupancy
  Mg  Mg0  1  0.50052200  0.17177800  0.55465600  1
  Ti  Ti1  1  0.50029200  0.46416700  0.54564000  1
  Mn  Mn2  1  0.00028000  0.00496900  0.55668000  1
  V  V3  1  0.50000000  0.00000000  0.88621000  1
  Zn  Zn4  1  0.50000000  0.83232000  0.00000000  1
  Cr  Cr5  1  1.00000000  0.66768000  0.77241000  1
  Fe  Fe6  1  0.50010400  0.32317300  0.66477000  1
  Co  Co7  1  0.50000000  0.16768000  0.77241000  1
  Cu  Cu8  1  0.00000000  0.33232000  0.00000000  1
  Ni  Ni9  1  0.00015000  0.33218500  0.55038300  1
  Sb  Sb10  1  0.00000000  0.00000000  0.00000000  1
  Sb  Sb11  1  0.00000000  0.00000000  0.77241000  1
  Sb  Sb12  1  0.50010300  0.01102900  0.66415100  1
  Sb  Sb13  1  0.50000000  0.50000000  0.00000000  1
  Sb  Sb14  1  1.00000000  0.50000000  0.88621000  1
  Sb  Sb15  1  0.50000000  0.50000000  0.77241000  1
  Sb  Sb16  1  0.00037600  0.48988100  0.66121000  1
  Sb  Sb17  1  1.00000000  0.66768000  0.00000000  1
  Sb  Sb18  1  0.50000000  0.66768000  0.88621000  1
  Sb  Sb19  1  0.50016500  0.64359300  0.63232800  1
  Sb  Sb20  1  0.00034800  0.63906300  0.54886500  1
  Sb  Sb21  1  0.50000000  0.16768000  0.00000000  1
  Sb  Sb22  1  1.00000000  0.16768000  0.88621000  1
  Sb  Sb23  1  0.99979700  0.17029500  0.65705000  1
  Sb  Sb24  1  1.00000000  0.83232000  0.88621000  1
  Sb  Sb25  1  0.50000000  0.83232000  0.77241000  1
  Sb  Sb26  1  0.99985900  0.82273000  0.65796700  1
  Sb  Sb27  1  0.50088100  0.84927900  0.54186800  1
  Sb  Sb28  1  0.50000000  0.33232000  0.88621000  1
  Sb  Sb29  1  1.00000000  0.33232000  0.77241000  1
  Cl  Cl30  1  0.49780700  0.56861600  0.47508200  1
  O  O31  1  1.00000000  0.82836000  0.95506000  1
  O  O32  1  0.50000000  0.82836000  0.84126000  1
  O  O33  1  0.00019600  0.84474300  0.72934800  1
  O  O34  1  0.50094200  0.85534900  0.61545200  1
  O  O35  1  0.50000000  0.82836000  0.93115000  1
  O  O36  1  1.00000000  0.82836000  0.81736000  1
  O  O37  1  0.50009000  0.84114300  0.70323300  1
  O  O38  1  0.99816100  0.82456200  0.57998500  1
  O  O39  1  0.69747000  0.32836000  0.00000000  1
  O  O40  1  0.19747000  0.32836000  0.88621000  1
  O  O41  1  0.69747000  0.32836000  0.77241000  1
  O  O42  1  0.19149000  0.32738300  0.66499800  1
  O  O43  1  0.70628700  0.33937200  0.54130000  1
  O  O44  1  0.30253000  0.32836000  0.00000000  1
  O  O45  1  0.80253000  0.32836000  0.88621000  1
  O  O46  1  0.30253000  0.32836000  0.77241000  1
  O  O47  1  0.80863100  0.32791400  0.66517600  1
  O  O48  1  0.29388600  0.33949200  0.54147300  1
  O  O49  1  0.69747000  0.67164000  0.00000000  1
  O  O50  1  0.19747000  0.67164000  0.88621000  1
  O  O51  1  0.69747000  0.67164000  0.77241000  1
  O  O52  1  0.20580300  0.64494000  0.66228900  1
  O  O53  1  0.68296000  0.64306500  0.57004200  1
  O  O54  1  0.30253000  0.67164000  0.00000000  1
  O  O55  1  0.80253000  0.67164000  0.88621000  1
  O  O56  1  0.30253000  0.67164000  0.77241000  1
  O  O57  1  0.79450300  0.64491000  0.66234200  1
  O  O58  1  0.31683400  0.64416600  0.57008800  1
  O  O59  1  1.00000000  0.17164000  0.95506000  1
  O  O60  1  0.50000000  0.17164000  0.84126000  1
  O  O61  1  0.00021600  0.15531300  0.72933600  1
  O  O62  1  0.50112300  0.17151300  0.62244700  1
  O  O63  1  0.50000000  0.17164000  0.93115000  1
  O  O64  1  1.00000000  0.17164000  0.81736000  1
  O  O65  1  0.50006600  0.17294900  0.70733900  1
  O  O66  1  0.99951400  0.17202100  0.59026600  1
  O  O67  1  0.00000000  0.50000000  0.95668000  1
  O  O68  1  0.50000000  0.50000000  0.84289000  1
  O  O69  1  0.00049200  0.50002000  0.72830400  1
  O  O70  1  0.49946400  0.44424700  0.61650500  1
  O  O71  1  0.50000000  0.50000000  0.92952000  1
  O  O72  1  1.00000000  0.50000000  0.81573000  1
  O  O73  1  0.49974300  0.48149200  0.70221600  1
  O  O74  1  0.00003100  0.48335800  0.59482900  1
  O  O75  1  0.69034000  0.00000000  0.00000000  1
  O  O76  1  0.19034000  0.00000000  0.88621000  1
  O  O77  1  0.69034000  0.00000000  0.77241000  1
  O  O78  1  0.19398300  0.01120100  0.66057000  1
  O  O79  1  0.71556200  0.01001600  0.54518400  1
  O  O80  1  0.30966000  0.00000000  0.00000000  1
  O  O81  1  0.80966000  0.00000000  0.88621000  1
  O  O82  1  0.30966000  0.00000000  0.77241000  1
  O  O83  1  0.80625300  0.01109200  0.66093500  1
  O  O84  1  0.28574600  0.00946800  0.54547600  1
