# generated using pymatgen
data_MgTiMnVZnCrFeCoCuNiSb20ClO54
_symmetry_space_group_name_H-M   'P 1'
_cell_length_a   6.66646600
_cell_length_b   9.51814600
_cell_length_c   29.10731900
_cell_angle_alpha   89.69694700
_cell_angle_beta   89.97639000
_cell_angle_gamma   89.99195500
_symmetry_Int_Tables_number   1
_chemical_formula_structural   MgTiMnVZnCrFeCoCuNiSb20ClO54
_chemical_formula_sum
'Mg1 Ti1 Mn1 V1 Zn1 Cr1 Fe1 Co1 Cu1 Ni1 Sb20 Cl1 O54'
_cell_volume   1846.90314222
_cell_formula_units_Z   1
loop_
 _symmetry_equiv_pos_site_id
 _symmetry_equiv_pos_as_xyz
  1  'x, y, z'
loop_
 _atom_site_type_symbol
 _atom_site_label
 _atom_site_symmetry_multiplicity
 _atom_site_fract_x
 _atom_site_fract_y
 _atom_site_fract_z
 _atom_site_occupancy
  Mg  Mg0  1  0.99960900  0.83163100  0.33969900  1
  Ti  Ti1  1  0.49917500  0.46891400  0.45564100  1
  Mn  Mn2  1  0.50000000  0.16768000  0.22759000  1
  V  V3  1  1.00000000  0.83232000  0.11379000  1
  Zn  Zn4  1  0.50000000  0.50000000  0.22759000  1
  Cr  Cr5  1  1.00000000  0.33232000  0.22759000  1
  Fe  Fe6  1  0.49880600  0.17307900  0.45061400  1
  Co  Co7  1  1.00000000  0.16768000  0.11379000  1
  Cu  Cu8  1  1.00000000  0.66768000  0.22759000  1
  Ni  Ni9  1  0.99904600  0.32715500  0.44659800  1
  Sb  Sb10  1  0.00000000  0.00000000  0.00000000  1
  Sb  Sb11  1  0.50000000  1.00000000  0.11379000  1
  Sb  Sb12  1  1.00000000  0.00000000  0.22759000  1
  Sb  Sb13  1  0.49964500  0.00120000  0.34283100  1
  Sb  Sb14  1  0.99910800  0.01282500  0.45738800  1
  Sb  Sb15  1  0.50000000  0.50000000  0.00000000  1
  Sb  Sb16  1  1.00000000  0.50000000  0.11379000  1
  Sb  Sb17  1  0.99983000  0.50579700  0.33771700  1
  Sb  Sb18  1  1.00000000  0.33232000  0.00000000  1
  Sb  Sb19  1  0.50000000  0.33232000  0.11379000  1
  Sb  Sb20  1  0.49929600  0.33161800  0.33591600  1
  Sb  Sb21  1  0.50000000  0.83232000  0.00000000  1
  Sb  Sb22  1  0.50000000  0.83232000  0.22759000  1
  Sb  Sb23  1  0.49931200  0.81392800  0.46031300  1
  Sb  Sb24  1  0.50000000  0.16768000  0.00000000  1
  Sb  Sb25  1  0.99933000  0.15620400  0.33966300  1
  Sb  Sb26  1  0.00000000  0.66768000  0.00000000  1
  Sb  Sb27  1  0.50000000  0.66768000  0.11379000  1
  Sb  Sb28  1  0.49963000  0.65935800  0.34501700  1
  Sb  Sb29  1  0.99904200  0.64958000  0.45460400  1
  Cl  Cl30  1  0.49642600  0.52434600  0.53214400  1
  O  O31  1  1.00000000  0.17164000  0.04494000  1
  O  O32  1  0.50000000  0.17164000  0.15874000  1
  O  O33  1  0.00019600  0.15525700  0.27065200  1
  O  O34  1  0.50095700  0.17469600  0.38207500  1
  O  O35  1  0.50000000  0.17164000  0.06885000  1
  O  O36  1  1.00000000  0.17164000  0.18264000  1
  O  O37  1  0.49890100  0.16115100  0.29455000  1
  O  O38  1  0.99712900  0.16171900  0.40773000  1
  O  O39  1  0.69747000  0.67164000  1.00000000  1
  O  O40  1  0.19747000  0.67164000  0.11379000  1
  O  O41  1  0.69747000  0.67164000  0.22759000  1
  O  O42  1  0.19931600  0.66459200  0.34321800  1
  O  O43  1  0.68479100  0.64439700  0.44371100  1
  O  O44  1  0.30253000  0.67164000  0.00000000  1
  O  O45  1  0.80253000  0.67164000  0.11379000  1
  O  O46  1  0.30253000  0.67164000  0.22759000  1
  O  O47  1  0.80005500  0.66441200  0.34317800  1
  O  O48  1  0.31240400  0.64610500  0.44346900  1
  O  O49  1  0.69747000  0.32836000  1.00000000  1
  O  O50  1  0.19747000  0.32836000  0.11379000  1
  O  O51  1  0.69747000  0.32836000  0.22759000  1
  O  O52  1  0.19068600  0.32682000  0.33923500  1
  O  O53  1  0.69750900  0.32769600  0.45556300  1
  O  O54  1  0.30253000  0.32836000  0.00000000  1
  O  O55  1  0.80253000  0.32836000  0.11379000  1
  O  O56  1  0.30253000  0.32836000  0.22759000  1
  O  O57  1  0.80834700  0.32700900  0.33877200  1
  O  O58  1  0.30021400  0.32742800  0.45540900  1
  O  O59  1  1.00000000  0.82836000  0.04494000  1
  O  O60  1  0.50000000  0.82836000  0.15874000  1
  O  O61  1  0.00021600  0.84468700  0.27066400  1
  O  O62  1  0.50007800  0.83493700  0.38765000  1
  O  O63  1  0.50000000  0.82836000  0.06885000  1
  O  O64  1  1.00000000  0.82836000  0.18264000  1
  O  O65  1  0.49953300  0.83276800  0.30035900  1
  O  O66  1  0.99797100  0.83616800  0.41785600  1
  O  O67  1  1.00000000  0.50000000  0.04332000  1
  O  O68  1  0.50000000  0.50000000  0.15711000  1
  O  O69  1  0.00049200  0.49998000  0.27169600  1
  O  O70  1  0.49900900  0.48057600  0.38450300  1
  O  O71  1  0.50000000  0.50000000  0.07048000  1
  O  O72  1  1.00000000  0.50000000  0.18427000  1
  O  O73  1  0.49908700  0.50316500  0.29795400  1
  O  O74  1  0.99958400  0.49558900  0.40641400  1
  O  O75  1  0.69034000  0.00000000  1.00000000  1
  O  O76  1  0.19034000  1.00000000  0.11379000  1
  O  O77  1  0.69034000  0.00000000  0.22759000  1
  O  O78  1  0.19937800  0.00007200  0.34217400  1
  O  O79  1  0.68241700  0.02977600  0.45253000  1
  O  O80  1  0.30966000  1.00000000  0.00000000  1
  O  O81  1  0.80966000  0.00000000  0.11379000  1
  O  O82  1  0.30966000  1.00000000  0.22759000  1
  O  O83  1  0.79998400  0.99987800  0.34198600  1
  O  O84  1  0.31597500  0.02885900  0.45188500  1
