# generated using pymatgen
data_MgTiMnVZnCrFeCoCuNiSb20ClO54
_symmetry_space_group_name_H-M   'P 1'
_cell_length_a   6.73241500
_cell_length_b   9.49161100
_cell_length_c   29.55620000
_cell_angle_alpha   90.58850900
_cell_angle_beta   89.97697000
_cell_angle_gamma   89.99183400
_symmetry_Int_Tables_number   1
_chemical_formula_structural   MgTiMnVZnCrFeCoCuNiSb20ClO54
_chemical_formula_sum
'Mg1 Ti1 Mn1 V1 Zn1 Cr1 Fe1 Co1 Cu1 Ni1 Sb20 Cl1 O54'
_cell_volume   1888.58465622
_cell_formula_units_Z   1
loop_
 _symmetry_equiv_pos_site_id
 _symmetry_equiv_pos_as_xyz
  1  'x, y, z'
loop_
 _atom_site_type_symbol
 _atom_site_label
 _atom_site_symmetry_multiplicity
 _atom_site_fract_x
 _atom_site_fract_y
 _atom_site_fract_z
 _atom_site_occupancy
  Mg  Mg0  1  0.99935200  0.64606300  0.57601800  1
  Ti  Ti1  1  0.50106600  0.49558100  0.55551200  1
  Mn  Mn2  1  0.50000000  0.16768000  1.00000000  1
  V  V3  1  0.50000000  0.50000000  0.77241000  1
  Zn  Zn4  1  0.50000000  0.33232000  0.88621000  1
  Cr  Cr5  1  0.50000000  0.50000000  1.00000000  1
  Fe  Fe6  1  0.50224200  0.32521400  0.66600700  1
  Co  Co7  1  0.00214100  0.48009900  0.66610600  1
  Cu  Cu8  1  0.00000000  0.66768000  0.77241000  1
  Ni  Ni9  1  0.50280600  0.99634700  0.66356700  1
  Sb  Sb10  1  0.00000000  0.00000000  0.00000000  1
  Sb  Sb11  1  0.50000000  1.00000000  0.88621000  1
  Sb  Sb12  1  0.00000000  0.00000000  0.77241000  1
  Sb  Sb13  1  0.00076300  0.98310700  0.54223900  1
  Sb  Sb14  1  0.00000000  0.50000000  0.88621000  1
  Sb  Sb15  1  0.00000000  0.33232000  0.00000000  1
  Sb  Sb16  1  0.00000000  0.33232000  0.77241000  1
  Sb  Sb17  1  0.00178300  0.33381800  0.54822000  1
  Sb  Sb18  1  0.50000000  0.83232000  1.00000000  1
  Sb  Sb19  1  0.00000000  0.83232000  0.88621000  1
  Sb  Sb20  1  0.50000000  0.83232000  0.77241000  1
  Sb  Sb21  1  0.00365000  0.83382600  0.66206500  1
  Sb  Sb22  1  0.50070900  0.79932700  0.54831700  1
  Sb  Sb23  1  0.00000000  0.16768000  0.88621000  1
  Sb  Sb24  1  0.50000000  0.16768000  0.77241000  1
  Sb  Sb25  1  0.00217800  0.16526300  0.65794500  1
  Sb  Sb26  1  0.49984200  0.16673900  0.56102500  1
  Sb  Sb27  1  0.00000000  0.66768000  0.00000000  1
  Sb  Sb28  1  0.50000000  0.66768000  0.88621000  1
  Sb  Sb29  1  0.50242200  0.66256700  0.66227700  1
  Cl  Cl30  1  0.50139100  0.47315200  0.47664400  1
  O  O31  1  0.00000000  0.17164000  0.95506000  1
  O  O32  1  0.50000000  0.17164000  0.84126000  1
  O  O33  1  0.99980400  0.15525700  0.72934800  1
  O  O34  1  0.50173500  0.15891400  0.62468700  1
  O  O35  1  0.50000000  0.17164000  0.93115000  1
  O  O36  1  0.00000000  0.17164000  0.81736000  1
  O  O37  1  0.50267400  0.15911500  0.70748800  1
  O  O38  1  0.00246900  0.15371500  0.58740500  1
  O  O39  1  0.30253000  0.67164000  0.00000000  1
  O  O40  1  0.80253000  0.67164000  0.88621000  1
  O  O41  1  0.30253000  0.67164000  0.77241000  1
  O  O42  1  0.81184100  0.66880400  0.65858100  1
  O  O43  1  0.29507300  0.63303200  0.55425800  1
  O  O44  1  0.69747000  0.67164000  1.00000000  1
  O  O45  1  0.19747000  0.67164000  0.88621000  1
  O  O46  1  0.69747000  0.67164000  0.77241000  1
  O  O47  1  0.19452400  0.66816300  0.65950100  1
  O  O48  1  0.70674800  0.63438400  0.55399800  1
  O  O49  1  0.30253000  0.32836000  0.00000000  1
  O  O50  1  0.80253000  0.32836000  0.88621000  1
  O  O51  1  0.30253000  0.32836000  0.77241000  1
  O  O52  1  0.80670900  0.31878400  0.66480800  1
  O  O53  1  0.31710700  0.32805400  0.55675400  1
  O  O54  1  0.69747000  0.32836000  1.00000000  1
  O  O55  1  0.19747000  0.32836000  0.88621000  1
  O  O56  1  0.69747000  0.32836000  0.77241000  1
  O  O57  1  0.19638500  0.31885800  0.66531700  1
  O  O58  1  0.68553000  0.32675700  0.55631100  1
  O  O59  1  0.00000000  0.82836000  0.95506000  1
  O  O60  1  0.50000000  0.82836000  0.84126000  1
  O  O61  1  0.99978400  0.84468700  0.72933600  1
  O  O62  1  0.50284500  0.82457300  0.61639400  1
  O  O63  1  0.50000000  0.82836000  0.93115000  1
  O  O64  1  0.00000000  0.82836000  0.81736000  1
  O  O65  1  0.50314500  0.83381300  0.70450100  1
  O  O66  1  0.00511200  0.84359600  0.59248500  1
  O  O67  1  1.00000000  0.50000000  0.95668000  1
  O  O68  1  0.50000000  0.50000000  0.84289000  1
  O  O69  1  0.99950800  0.49998000  0.72830400  1
  O  O70  1  0.50241500  0.49286800  0.62287800  1
  O  O71  1  0.50000000  0.50000000  0.92952000  1
  O  O72  1  0.00000000  0.50000000  0.81573000  1
  O  O73  1  0.50138400  0.49938100  0.71006900  1
  O  O74  1  0.00117300  0.46155300  0.59968400  1
  O  O75  1  0.30966000  1.00000000  0.00000000  1
  O  O76  1  0.80966000  1.00000000  0.88621000  1
  O  O77  1  0.30966000  0.00000000  0.77241000  1
  O  O78  1  0.81000700  0.99830000  0.66061300  1
  O  O79  1  0.30454800  0.03019900  0.53857800  1
  O  O80  1  0.69034000  1.00000000  1.00000000  1
  O  O81  1  0.19034000  0.00000000  0.88621000  1
  O  O82  1  0.69034000  1.00000000  0.77241000  1
  O  O83  1  0.19505300  0.99847700  0.66104100  1
  O  O84  1  0.69601200  0.02692000  0.53973700  1
