# generated using pymatgen
data_MgTiMnVZnCrFeCoCuNiSb20ClO54
_symmetry_space_group_name_H-M   'P 1'
_cell_length_a   6.58059600
_cell_length_b   9.73886000
_cell_length_c   28.81653400
_cell_angle_alpha   89.93886700
_cell_angle_beta   89.98330500
_cell_angle_gamma   89.97430800
_symmetry_Int_Tables_number   1
_chemical_formula_structural   MgTiMnVZnCrFeCoCuNiSb20ClO54
_chemical_formula_sum
'Mg1 Ti1 Mn1 V1 Zn1 Cr1 Fe1 Co1 Cu1 Ni1 Sb20 Cl1 O54'
_cell_volume   1846.77839878
_cell_formula_units_Z   1
loop_
 _symmetry_equiv_pos_site_id
 _symmetry_equiv_pos_as_xyz
  1  'x, y, z'
loop_
 _atom_site_type_symbol
 _atom_site_label
 _atom_site_symmetry_multiplicity
 _atom_site_fract_x
 _atom_site_fract_y
 _atom_site_fract_z
 _atom_site_occupancy
  Mg  Mg0  1  1.00000000  0.16768000  0.11379000  1
  Ti  Ti1  1  0.49928900  0.52896000  0.47248300  1
  Mn  Mn2  1  0.99959500  0.67045200  0.45798800  1
  V  V3  1  0.50000000  0.33232000  0.11379000  1
  Zn  Zn4  1  0.00000000  0.66768000  1.00000000  1
  Cr  Cr5  1  0.99973200  0.38048200  0.47015400  1
  Fe  Fe6  1  0.50051200  0.00170700  0.34122400  1
  Co  Co7  1  0.50000000  0.16768000  1.00000000  1
  Cu  Cu8  1  0.50000000  0.50000000  1.00000000  1
  Ni  Ni9  1  1.00000000  0.83232000  0.11379000  1
  Sb  Sb10  1  0.00000000  0.00000000  0.00000000  1
  Sb  Sb11  1  0.50000000  0.00000000  0.11379000  1
  Sb  Sb12  1  1.00000000  0.00000000  0.22759000  1
  Sb  Sb13  1  0.00027900  0.01478200  0.43754700  1
  Sb  Sb14  1  1.00000000  0.50000000  0.11379000  1
  Sb  Sb15  1  0.50000000  0.50000000  0.22759000  1
  Sb  Sb16  1  0.99990000  0.49854600  0.34927600  1
  Sb  Sb17  1  0.50000000  0.66768000  0.11379000  1
  Sb  Sb18  1  1.00000000  0.66768000  0.22759000  1
  Sb  Sb19  1  0.50025300  0.68144100  0.34914600  1
  Sb  Sb20  1  0.50000000  0.16768000  0.22759000  1
  Sb  Sb21  1  0.99965000  0.15958400  0.34740900  1
  Sb  Sb22  1  0.49932500  0.21268500  0.46586900  1
  Sb  Sb23  1  0.50000000  0.83232000  1.00000000  1
  Sb  Sb24  1  0.50000000  0.83232000  0.22759000  1
  Sb  Sb25  1  0.00000700  0.83791400  0.34263200  1
  Sb  Sb26  1  0.50031600  0.84546300  0.46891800  1
  Sb  Sb27  1  0.00000000  0.33232000  1.00000000  1
  Sb  Sb28  1  1.00000000  0.33232000  0.22759000  1
  Sb  Sb29  1  0.49965800  0.34298800  0.34619100  1
  Cl  Cl30  1  0.49972100  0.54529600  0.55101400  1
  O  O31  1  1.00000000  0.82836000  0.04494000  1
  O  O32  1  0.50000000  0.82836000  0.15874000  1
  O  O33  1  0.99980400  0.84474300  0.27065200  1
  O  O34  1  0.49999700  0.83993500  0.39372900  1
  O  O35  1  0.50000000  0.82836000  0.06885000  1
  O  O36  1  1.00000000  0.82836000  0.18264000  1
  O  O37  1  0.49979700  0.83256100  0.29793700  1
  O  O38  1  0.99981400  0.80636400  0.41026000  1
  O  O39  1  0.30253000  0.32836000  1.00000000  1
  O  O40  1  0.80253000  0.32836000  0.11379000  1
  O  O41  1  0.30253000  0.32836000  0.22759000  1
  O  O42  1  0.79098700  0.33593700  0.33440900  1
  O  O43  1  0.30210000  0.37552000  0.47095400  1
  O  O44  1  0.69747000  0.32836000  1.00000000  1
  O  O45  1  0.19747000  0.32836000  0.11379000  1
  O  O46  1  0.69747000  0.32836000  0.22759000  1
  O  O47  1  0.20808700  0.33609100  0.33423800  1
  O  O48  1  0.69756800  0.37543600  0.47096900  1
  O  O49  1  0.30253000  0.67164000  1.00000000  1
  O  O50  1  0.80253000  0.67164000  0.11379000  1
  O  O51  1  0.30253000  0.67164000  0.22759000  1
  O  O52  1  0.80154200  0.68399600  0.33584400  1
  O  O53  1  0.28734600  0.66116800  0.46486000  1
  O  O54  1  0.69747000  0.67164000  1.00000000  1
  O  O55  1  0.19747000  0.67164000  0.11379000  1
  O  O56  1  0.69747000  0.67164000  0.22759000  1
  O  O57  1  0.19758300  0.68302300  0.33576300  1
  O  O58  1  0.71273200  0.66121100  0.46514000  1
  O  O59  1  1.00000000  0.17164000  0.04494000  1
  O  O60  1  0.50000000  0.17164000  0.15874000  1
  O  O61  1  0.99978400  0.15531300  0.27066400  1
  O  O62  1  0.49897000  0.19345700  0.39418300  1
  O  O63  1  0.50000000  0.17164000  0.06885000  1
  O  O64  1  1.00000000  0.17164000  0.18264000  1
  O  O65  1  0.49966400  0.17267300  0.29967000  1
  O  O66  1  0.99929400  0.21743100  0.44821300  1
  O  O67  1  1.00000000  0.50000000  0.04332000  1
  O  O68  1  0.50000000  0.50000000  0.15711000  1
  O  O69  1  0.99950800  0.50002000  0.27169600  1
  O  O70  1  0.49990100  0.50977500  0.39201400  1
  O  O71  1  0.50000000  0.50000000  0.07048000  1
  O  O72  1  1.00000000  0.50000000  0.18427000  1
  O  O73  1  0.50090300  0.51620200  0.30343800  1
  O  O74  1  0.00054400  0.50764600  0.42586300  1
  O  O75  1  0.30966000  0.00000000  0.00000000  1
  O  O76  1  0.80966000  0.00000000  0.11379000  1
  O  O77  1  0.30966000  0.00000000  0.22759000  1
  O  O78  1  0.79621500  0.98862900  0.33753300  1
  O  O79  1  0.24855800  0.98304300  0.47372500  1
  O  O80  1  0.69034000  0.00000000  1.00000000  1
  O  O81  1  0.19034000  0.00000000  0.11379000  1
  O  O82  1  0.69034000  0.00000000  0.22759000  1
  O  O83  1  0.20343600  0.98898900  0.33762400  1
  O  O84  1  0.75278300  0.98179900  0.47403700  1
