# generated using pymatgen
data_MgTiMnVZnCrFeCoCuNiSb20ClO54
_symmetry_space_group_name_H-M   'P 1'
_cell_length_a   6.59853100
_cell_length_b   9.56374000
_cell_length_c   28.48911500
_cell_angle_alpha   89.89320600
_cell_angle_beta   89.91130700
_cell_angle_gamma   89.99400800
_symmetry_Int_Tables_number   1
_chemical_formula_structural   MgTiMnVZnCrFeCoCuNiSb20ClO54
_chemical_formula_sum
'Mg1 Ti1 Mn1 V1 Zn1 Cr1 Fe1 Co1 Cu1 Ni1 Sb20 Cl1 O54'
_cell_volume   1797.84689161
_cell_formula_units_Z   1
loop_
 _symmetry_equiv_pos_site_id
 _symmetry_equiv_pos_as_xyz
  1  'x, y, z'
loop_
 _atom_site_type_symbol
 _atom_site_label
 _atom_site_symmetry_multiplicity
 _atom_site_fract_x
 _atom_site_fract_y
 _atom_site_fract_z
 _atom_site_occupancy
  Mg  Mg0  1  0.50003400  0.66666667  0.34059800  1
  Ti  Ti1  1  0.50083500  0.50212200  0.45058200  1
  Mn  Mn2  1  0.50000000  0.83232000  0.22759000  1
  V  V3  1  0.00000000  0.66768000  0.22759000  1
  Zn  Zn4  1  0.50000000  0.16768000  0.22759000  1
  Cr  Cr5  1  0.00000000  0.16768000  0.11379000  1
  Fe  Fe6  1  0.00000000  0.50000000  0.11379000  1
  Co  Co7  1  0.50000000  0.00000000  0.11379000  1
  Cu  Cu8  1  1.00000000  0.66768000  1.00000000  1
  Ni  Ni9  1  0.00000000  0.00000000  0.00000000  1
  Sb  Sb10  1  0.00000000  0.00000000  0.22759000  1
  Sb  Sb11  1  0.49878200  0.98854700  0.34153500  1
  Sb  Sb12  1  0.99997200  0.99709100  0.46870100  1
  Sb  Sb13  1  0.50000000  0.50000000  1.00000000  1
  Sb  Sb14  1  0.50000000  0.50000000  0.22759000  1
  Sb  Sb15  1  0.99994600  0.50679700  0.34250000  1
  Sb  Sb16  1  0.50000000  0.66768000  0.11379000  1
  Sb  Sb17  1  0.99854300  0.66533000  0.46177100  1
  Sb  Sb18  1  0.50000000  0.16768000  1.00000000  1
  Sb  Sb19  1  0.99591200  0.16531600  0.35006900  1
  Sb  Sb20  1  0.50133500  0.17490400  0.46462400  1
  Sb  Sb21  1  0.50000000  0.83232000  1.00000000  1
  Sb  Sb22  1  0.00000000  0.83232000  0.11379000  1
  Sb  Sb23  1  0.00000400  0.82459500  0.34166900  1
  Sb  Sb24  1  0.50383300  0.83173900  0.45912200  1
  Sb  Sb25  1  1.00000000  0.33232000  1.00000000  1
  Sb  Sb26  1  0.50000000  0.33232000  0.11379000  1
  Sb  Sb27  1  0.00000000  0.33232000  0.22759000  1
  Sb  Sb28  1  0.49851800  0.33443000  0.34224900  1
  Sb  Sb29  1  0.99759900  0.34518800  0.47030200  1
  Cl  Cl30  1  0.52647600  0.50103400  0.53319200  1
  O  O31  1  0.00000000  0.82836000  0.04494000  1
  O  O32  1  0.50000000  0.82836000  0.15874000  1
  O  O33  1  0.99980400  0.84474300  0.27065200  1
  O  O34  1  0.49842700  0.83142600  0.38694300  1
  O  O35  1  0.50000000  0.82836000  0.06885000  1
  O  O36  1  0.00000000  0.82836000  0.18264000  1
  O  O37  1  0.49890800  0.83493600  0.29478300  1
  O  O38  1  0.00147600  0.82899200  0.41326900  1
  O  O39  1  0.30253000  0.32836000  1.00000000  1
  O  O40  1  0.80253000  0.32836000  0.11379000  1
  O  O41  1  0.30253000  0.32836000  0.22759000  1
  O  O42  1  0.80230700  0.34696500  0.33882700  1
  O  O43  1  0.30401400  0.34815800  0.45148500  1
  O  O44  1  0.69747000  0.32836000  1.00000000  1
  O  O45  1  0.19747000  0.32836000  0.11379000  1
  O  O46  1  0.69747000  0.32836000  0.22759000  1
  O  O47  1  0.19402500  0.34383900  0.33902100  1
  O  O48  1  0.69577000  0.34528100  0.44767900  1
  O  O49  1  0.30253000  0.67164000  1.00000000  1
  O  O50  1  0.80253000  0.67164000  0.11379000  1
  O  O51  1  0.30253000  0.67164000  0.22759000  1
  O  O52  1  0.80552500  0.66601400  0.33998800  1
  O  O53  1  0.30593800  0.65127200  0.44861200  1
  O  O54  1  0.69747000  0.67164000  1.00000000  1
  O  O55  1  0.19747000  0.67164000  0.11379000  1
  O  O56  1  0.69747000  0.67164000  0.22759000  1
  O  O57  1  0.19443800  0.66620000  0.34000300  1
  O  O58  1  0.69549800  0.65067400  0.44496400  1
  O  O59  1  0.00000000  0.17164000  0.04494000  1
  O  O60  1  0.50000000  0.17164000  0.15874000  1
  O  O61  1  0.99978400  0.15531300  0.27066400  1
  O  O62  1  0.49763200  0.16755200  0.38814200  1
  O  O63  1  0.50000000  0.17164000  0.06885000  1
  O  O64  1  0.00000000  0.17164000  0.18264000  1
  O  O65  1  0.50087300  0.16392900  0.30093600  1
  O  O66  1  0.00648200  0.17461700  0.42724800  1
  O  O67  1  0.00000000  0.50000000  0.04332000  1
  O  O68  1  0.50000000  0.50000000  0.15711000  1
  O  O69  1  0.99950800  0.50002000  0.27169600  1
  O  O70  1  0.49492400  0.49549900  0.38307900  1
  O  O71  1  0.50000000  0.50000000  0.07048000  1
  O  O72  1  0.00000000  0.50000000  0.18427000  1
  O  O73  1  0.49827200  0.49508400  0.29606800  1
  O  O74  1  0.00222900  0.49868400  0.41307400  1
  O  O75  1  0.30966000  0.00000000  1.00000000  1
  O  O76  1  0.80966000  0.00000000  0.11379000  1
  O  O77  1  0.30966000  0.00000000  0.22759000  1
  O  O78  1  0.80193900  0.98330300  0.34165800  1
  O  O79  1  0.29715900  0.00132300  0.44692600  1
  O  O80  1  0.69034000  0.00000000  1.00000000  1
  O  O81  1  0.19034000  0.00000000  0.11379000  1
  O  O82  1  0.69034000  0.00000000  0.22759000  1
  O  O83  1  0.19532300  0.98576000  0.34208100  1
  O  O84  1  0.70579600  0.00443600  0.44473800  1
