# generated using pymatgen
data_MgTiMnVZnCrFeCoCuNiSb20ClO54
_symmetry_space_group_name_H-M   'P 1'
_cell_length_a   6.67984200
_cell_length_b   9.48207500
_cell_length_c   29.06956200
_cell_angle_alpha   89.95428800
_cell_angle_beta   89.96891800
_cell_angle_gamma   89.96379100
_symmetry_Int_Tables_number   1
_chemical_formula_structural   MgTiMnVZnCrFeCoCuNiSb20ClO54
_chemical_formula_sum
'Mg1 Ti1 Mn1 V1 Zn1 Cr1 Fe1 Co1 Cu1 Ni1 Sb20 Cl1 O54'
_cell_volume   1841.22886906
_cell_formula_units_Z   1
loop_
 _symmetry_equiv_pos_site_id
 _symmetry_equiv_pos_as_xyz
  1  'x, y, z'
loop_
 _atom_site_type_symbol
 _atom_site_label
 _atom_site_symmetry_multiplicity
 _atom_site_fract_x
 _atom_site_fract_y
 _atom_site_fract_z
 _atom_site_occupancy
  Mg  Mg0  1  0.50000000  0.16768000  0.22759000  1
  Ti  Ti1  1  0.50321500  0.47566700  0.45617900  1
  Mn  Mn2  1  0.00000000  0.66768000  0.22759000  1
  V  V3  1  0.50000000  0.00000000  0.11379000  1
  Zn  Zn4  1  0.50000000  0.50000000  1.00000000  1
  Cr  Cr5  1  0.00000000  0.50000000  0.11379000  1
  Fe  Fe6  1  0.50000000  0.66768000  0.11379000  1
  Co  Co7  1  0.50116300  0.15051800  0.45146000  1
  Cu  Cu8  1  0.50000000  0.50000000  0.22759000  1
  Ni  Ni9  1  0.00255700  0.00736100  0.44921700  1
  Sb  Sb10  1  0.00000000  0.00000000  0.00000000  1
  Sb  Sb11  1  0.00000000  0.00000000  0.22759000  1
  Sb  Sb12  1  0.49889800  0.00576600  0.34437000  1
  Sb  Sb13  1  0.00431200  0.50105800  0.34227800  1
  Sb  Sb14  1  0.00000000  0.66768000  0.00000000  1
  Sb  Sb15  1  0.50056900  0.66503100  0.34508900  1
  Sb  Sb16  1  0.99847300  0.67850300  0.46180100  1
  Sb  Sb17  1  0.50000000  0.16768000  1.00000000  1
  Sb  Sb18  1  1.00000000  0.16768000  0.11379000  1
  Sb  Sb19  1  0.99819200  0.16886500  0.34355700  1
  Sb  Sb20  1  0.50000000  0.83232000  1.00000000  1
  Sb  Sb21  1  0.00000000  0.83232000  0.11379000  1
  Sb  Sb22  1  0.50000000  0.83232000  0.22759000  1
  Sb  Sb23  1  0.99985500  0.83469700  0.34149700  1
  Sb  Sb24  1  0.50211200  0.82350300  0.46421200  1
  Sb  Sb25  1  1.00000000  0.33232000  0.00000000  1
  Sb  Sb26  1  0.50000000  0.33232000  0.11379000  1
  Sb  Sb27  1  1.00000000  0.33232000  0.22759000  1
  Sb  Sb28  1  0.49958700  0.33155500  0.33526700  1
  Sb  Sb29  1  0.00100200  0.31191300  0.46733400  1
  Cl  Cl30  1  0.52514700  0.52856100  0.53330800  1
  O  O31  1  0.00000000  0.82836000  0.04494000  1
  O  O32  1  0.50000000  0.82836000  0.15874000  1
  O  O33  1  0.99980400  0.84474300  0.27065200  1
  O  O34  1  0.49564600  0.84063800  0.38866600  1
  O  O35  1  0.50000000  0.82836000  0.06885000  1
  O  O36  1  0.00000000  0.82836000  0.18264000  1
  O  O37  1  0.50180900  0.84055700  0.30015400  1
  O  O38  1  0.00380100  0.82879600  0.40970500  1
  O  O39  1  0.30253000  0.32836000  0.00000000  1
  O  O40  1  0.80253000  0.32836000  0.11379000  1
  O  O41  1  0.30253000  0.32836000  0.22759000  1
  O  O42  1  0.79817700  0.32137200  0.33442300  1
  O  O43  1  0.31557600  0.33133100  0.45730600  1
  O  O44  1  0.69747000  0.32836000  0.00000000  1
  O  O45  1  0.19747000  0.32836000  0.11379000  1
  O  O46  1  0.69747000  0.32836000  0.22759000  1
  O  O47  1  0.20166900  0.31741600  0.33243100  1
  O  O48  1  0.68941700  0.33223600  0.45385200  1
  O  O49  1  0.30253000  0.67164000  1.00000000  1
  O  O50  1  0.80253000  0.67164000  0.11379000  1
  O  O51  1  0.30253000  0.67164000  0.22759000  1
  O  O52  1  0.79692700  0.68176500  0.33677900  1
  O  O53  1  0.31105200  0.65607400  0.44755700  1
  O  O54  1  0.69747000  0.67164000  1.00000000  1
  O  O55  1  0.19747000  0.67164000  0.11379000  1
  O  O56  1  0.69747000  0.67164000  0.22759000  1
  O  O57  1  0.20503400  0.68461100  0.33510200  1
  O  O58  1  0.69006400  0.65585600  0.44357600  1
  O  O59  1  1.00000000  0.17164000  0.04494000  1
  O  O60  1  0.50000000  0.17164000  0.15874000  1
  O  O61  1  0.99978400  0.15531300  0.27066400  1
  O  O62  1  0.49729700  0.17639100  0.38445600  1
  O  O63  1  0.50000000  0.17164000  0.06885000  1
  O  O64  1  1.00000000  0.17164000  0.18264000  1
  O  O65  1  0.50674200  0.15711300  0.29715600  1
  O  O66  1  0.00699400  0.18176500  0.41047700  1
  O  O67  1  0.00000000  0.50000000  0.04332000  1
  O  O68  1  0.50000000  0.50000000  0.15711000  1
  O  O69  1  0.99950800  0.50002000  0.27169600  1
  O  O70  1  0.49056300  0.48501700  0.38408300  1
  O  O71  1  0.50000000  0.50000000  0.07048000  1
  O  O72  1  0.00000000  0.50000000  0.18427000  1
  O  O73  1  0.50027900  0.50635300  0.29709600  1
  O  O74  1  0.00386900  0.49081300  0.43051500  1
  O  O75  1  0.30966000  0.00000000  1.00000000  1
  O  O76  1  0.80966000  0.00000000  0.11379000  1
  O  O77  1  0.30966000  0.00000000  0.22759000  1
  O  O78  1  0.80637500  0.00184900  0.34343200  1
  O  O79  1  0.29052600  0.01524600  0.45801000  1
  O  O80  1  0.69034000  0.00000000  1.00000000  1
  O  O81  1  0.19034000  0.00000000  0.11379000  1
  O  O82  1  0.69034000  0.00000000  0.22759000  1
  O  O83  1  0.19198800  0.00253700  0.34219900  1
  O  O84  1  0.71340000  0.01936300  0.45645000  1
