# generated using pymatgen
data_MgTiMnVZnCrFeCoCuNiSb20ClO54
_symmetry_space_group_name_H-M   'P 1'
_cell_length_a   6.64128800
_cell_length_b   9.49493800
_cell_length_c   28.84231000
_cell_angle_alpha   89.93518700
_cell_angle_beta   89.99237300
_cell_angle_gamma   89.98627100
_symmetry_Int_Tables_number   1
_chemical_formula_structural   MgTiMnVZnCrFeCoCuNiSb20ClO54
_chemical_formula_sum
'Mg1 Ti1 Mn1 V1 Zn1 Cr1 Fe1 Co1 Cu1 Ni1 Sb20 Cl1 O54'
_cell_volume   1818.75497085
_cell_formula_units_Z   1
loop_
 _symmetry_equiv_pos_site_id
 _symmetry_equiv_pos_as_xyz
  1  'x, y, z'
loop_
 _atom_site_type_symbol
 _atom_site_label
 _atom_site_symmetry_multiplicity
 _atom_site_fract_x
 _atom_site_fract_y
 _atom_site_fract_z
 _atom_site_occupancy
  Mg  Mg0  1  0.00000000  0.50000000  0.88621000  1
  Ti  Ti1  1  0.49431900  0.50967300  0.53997000  1
  Mn  Mn2  1  0.50000000  1.00000000  0.88621000  1
  V  V3  1  1.00000000  0.66768000  0.77241000  1
  Zn  Zn4  1  0.50000000  0.50000000  0.00000000  1
  Cr  Cr5  1  0.99969000  0.83665300  0.65863500  1
  Fe  Fe6  1  0.00000000  0.00000000  0.00000000  1
  Co  Co7  1  0.49692300  0.82478700  0.54492300  1
  Cu  Cu8  1  1.00000000  0.16768000  0.88621000  1
  Ni  Ni9  1  1.00000000  0.33232000  0.77241000  1
  Sb  Sb10  1  1.00000000  0.00000000  0.77241000  1
  Sb  Sb11  1  0.49976400  0.99885300  0.65152800  1
  Sb  Sb12  1  0.99835200  0.99215300  0.54093200  1
  Sb  Sb13  1  0.50000000  0.50000000  0.77241000  1
  Sb  Sb14  1  0.99918700  0.51147500  0.65945900  1
  Sb  Sb15  1  0.00000000  0.66768000  0.00000000  1
  Sb  Sb16  1  0.50000000  0.66768000  0.88621000  1
  Sb  Sb17  1  0.49997900  0.67161000  0.65695300  1
  Sb  Sb18  1  0.99666000  0.68070300  0.53523500  1
  Sb  Sb19  1  0.50000000  0.16768000  0.00000000  1
  Sb  Sb20  1  0.50000000  0.16768000  0.77241000  1
  Sb  Sb21  1  0.99947900  0.15906200  0.65895300  1
  Sb  Sb22  1  0.49651500  0.16225800  0.53091200  1
  Sb  Sb23  1  0.50000000  0.83232000  0.00000000  1
  Sb  Sb24  1  1.00000000  0.83232000  0.88621000  1
  Sb  Sb25  1  0.50000000  0.83232000  0.77241000  1
  Sb  Sb26  1  1.00000000  0.33232000  0.00000000  1
  Sb  Sb27  1  0.50000000  0.33232000  0.88621000  1
  Sb  Sb28  1  0.49954600  0.33199300  0.65100400  1
  Sb  Sb29  1  0.99803700  0.33385500  0.53540500  1
  Cl  Cl30  1  0.47994900  0.47665300  0.46150900  1
  O  O31  1  0.00000000  0.82836000  0.95506000  1
  O  O32  1  0.50000000  0.82836000  0.84126000  1
  O  O33  1  0.00019600  0.84474300  0.72934800  1
  O  O34  1  0.50313600  0.82801500  0.61205000  1
  O  O35  1  0.50000000  0.82836000  0.93115000  1
  O  O36  1  1.00000000  0.82836000  0.81736000  1
  O  O37  1  0.49831700  0.84027600  0.70254400  1
  O  O38  1  0.99611200  0.82856700  0.58837200  1
  O  O39  1  0.69747000  0.32836000  1.00000000  1
  O  O40  1  0.19747000  0.32836000  0.88621000  1
  O  O41  1  0.69747000  0.32836000  0.77241000  1
  O  O42  1  0.20053300  0.31649600  0.65850200  1
  O  O43  1  0.68757700  0.34666600  0.54918000  1
  O  O44  1  0.30253000  0.32836000  0.00000000  1
  O  O45  1  0.80253000  0.32836000  0.88621000  1
  O  O46  1  0.30253000  0.32836000  0.77241000  1
  O  O47  1  0.79837400  0.31633800  0.65858300  1
  O  O48  1  0.30600100  0.34855000  0.55178400  1
  O  O49  1  0.69747000  0.67164000  1.00000000  1
  O  O50  1  0.19747000  0.67164000  0.88621000  1
  O  O51  1  0.69747000  0.67164000  0.77241000  1
  O  O52  1  0.19952700  0.68624400  0.66082100  1
  O  O53  1  0.67811500  0.66723500  0.54146900  1
  O  O54  1  0.30253000  0.67164000  0.00000000  1
  O  O55  1  0.80253000  0.67164000  0.88621000  1
  O  O56  1  0.30253000  0.67164000  0.77241000  1
  O  O57  1  0.80008800  0.68708800  0.66185800  1
  O  O58  1  0.31337900  0.66706200  0.54391800  1
  O  O59  1  1.00000000  0.17164000  0.95506000  1
  O  O60  1  0.50000000  0.17164000  0.84126000  1
  O  O61  1  0.00021600  0.15531300  0.72933600  1
  O  O62  1  0.50092100  0.16322400  0.60699000  1
  O  O63  1  0.50000000  0.17164000  0.93115000  1
  O  O64  1  1.00000000  0.17164000  0.81736000  1
  O  O65  1  0.49949800  0.15892300  0.69971800  1
  O  O66  1  0.99753700  0.16450900  0.58629200  1
  O  O67  1  0.00000000  0.50000000  0.95668000  1
  O  O68  1  0.50000000  0.50000000  0.84289000  1
  O  O69  1  0.00049200  0.50002000  0.72830400  1
  O  O70  1  0.50414000  0.51204700  0.61239000  1
  O  O71  1  0.50000000  0.50000000  0.92952000  1
  O  O72  1  0.00000000  0.50000000  0.81573000  1
  O  O73  1  0.49969300  0.50162000  0.70014500  1
  O  O74  1  0.99330400  0.50878300  0.57550200  1
  O  O75  1  0.69034000  0.00000000  1.00000000  1
  O  O76  1  0.19034000  1.00000000  0.88621000  1
  O  O77  1  0.69034000  0.00000000  0.77241000  1
  O  O78  1  0.19294900  0.99543600  0.65586600  1
  O  O79  1  0.68199900  0.98178300  0.54561100  1
  O  O80  1  0.30966000  1.00000000  0.00000000  1
  O  O81  1  0.80966000  0.00000000  0.88621000  1
  O  O82  1  0.30966000  1.00000000  0.77241000  1
  O  O83  1  0.80656900  0.99542000  0.65622900  1
  O  O84  1  0.31375000  0.98037000  0.54726100  1
