# generated using pymatgen
data_MgTiMnVZnCrFeCoCuNiSb20ClO54
_symmetry_space_group_name_H-M   'P 1'
_cell_length_a   6.67311000
_cell_length_b   9.56499000
_cell_length_c   29.07361900
_cell_angle_alpha   90.03346400
_cell_angle_beta   89.84119500
_cell_angle_gamma   89.92810600
_symmetry_Int_Tables_number   1
_chemical_formula_structural   MgTiMnVZnCrFeCoCuNiSb20ClO54
_chemical_formula_sum
'Mg1 Ti1 Mn1 V1 Zn1 Cr1 Fe1 Co1 Cu1 Ni1 Sb20 Cl1 O54'
_cell_volume   1855.70874350
_cell_formula_units_Z   1
loop_
 _symmetry_equiv_pos_site_id
 _symmetry_equiv_pos_as_xyz
  1  'x, y, z'
loop_
 _atom_site_type_symbol
 _atom_site_label
 _atom_site_symmetry_multiplicity
 _atom_site_fract_x
 _atom_site_fract_y
 _atom_site_fract_z
 _atom_site_occupancy
  Mg  Mg0  1  0.00000000  0.00000000  0.00000000  1
  Ti  Ti1  1  0.51183300  0.48530300  0.54274700  1
  Mn  Mn2  1  0.50113200  0.33227300  0.66076800  1
  V  V3  1  0.00000000  0.66768000  0.77241000  1
  Zn  Zn4  1  0.00000000  0.33232000  1.00000000  1
  Cr  Cr5  1  0.50000000  0.83232000  1.00000000  1
  Fe  Fe6  1  0.50000000  0.33232000  0.88621000  1
  Co  Co7  1  0.50000000  0.50000000  1.00000000  1
  Cu  Cu8  1  0.49798900  0.15543200  0.54599400  1
  Ni  Ni9  1  0.50086800  0.82773900  0.54821000  1
  Sb  Sb10  1  0.50000000  1.00000000  0.88621000  1
  Sb  Sb11  1  1.00000000  1.00000000  0.77241000  1
  Sb  Sb12  1  0.50037900  0.00593300  0.65636200  1
  Sb  Sb13  1  0.99715200  0.98883500  0.53235000  1
  Sb  Sb14  1  0.00000000  0.50000000  0.88621000  1
  Sb  Sb15  1  0.50000000  0.50000000  0.77241000  1
  Sb  Sb16  1  0.99873200  0.49151900  0.65504400  1
  Sb  Sb17  1  0.00000000  0.66768000  0.00000000  1
  Sb  Sb18  1  0.50000000  0.66768000  0.88621000  1
  Sb  Sb19  1  0.49804700  0.65918900  0.65095800  1
  Sb  Sb20  1  0.01261000  0.67414800  0.53866200  1
  Sb  Sb21  1  0.50000000  0.16768000  1.00000000  1
  Sb  Sb22  1  1.00000000  0.16768000  0.88621000  1
  Sb  Sb23  1  0.50000000  0.16768000  0.77241000  1
  Sb  Sb24  1  0.00138500  0.17647500  0.64603100  1
  Sb  Sb25  1  1.00000000  0.83232000  0.88621000  1
  Sb  Sb26  1  0.50000000  0.83232000  0.77241000  1
  Sb  Sb27  1  0.99808500  0.83571100  0.65822000  1
  Sb  Sb28  1  0.00000000  0.33232000  0.77241000  1
  Sb  Sb29  1  0.02084300  0.33769600  0.52318300  1
  Cl  Cl30  1  0.45525300  0.53389200  0.46599400  1
  O  O31  1  0.00000000  0.82836000  0.95506000  1
  O  O32  1  0.50000000  0.82836000  0.84126000  1
  O  O33  1  0.00019600  0.84474300  0.72934800  1
  O  O34  1  0.50709100  0.84071900  0.61447700  1
  O  O35  1  0.50000000  0.82836000  0.93115000  1
  O  O36  1  0.00000000  0.82836000  0.81736000  1
  O  O37  1  0.49879600  0.83697700  0.70299600  1
  O  O38  1  0.99439900  0.83912900  0.58876300  1
  O  O39  1  0.69747000  0.32836000  1.00000000  1
  O  O40  1  0.19747000  0.32836000  0.88621000  1
  O  O41  1  0.69747000  0.32836000  0.77241000  1
  O  O42  1  0.21804400  0.33106700  0.66523400  1
  O  O43  1  0.70066100  0.34833700  0.53742900  1
  O  O44  1  0.30253000  0.32836000  1.00000000  1
  O  O45  1  0.80253000  0.32836000  0.88621000  1
  O  O46  1  0.30253000  0.32836000  0.77241000  1
  O  O47  1  0.78285400  0.32878100  0.66637700  1
  O  O48  1  0.32203800  0.33153400  0.54262700  1
  O  O49  1  0.69747000  0.67164000  1.00000000  1
  O  O50  1  0.19747000  0.67164000  0.88621000  1
  O  O51  1  0.69747000  0.67164000  0.77241000  1
  O  O52  1  0.19734400  0.68110800  0.66227400  1
  O  O53  1  0.68836200  0.66647500  0.54987000  1
  O  O54  1  0.30253000  0.67164000  1.00000000  1
  O  O55  1  0.80253000  0.67164000  0.88621000  1
  O  O56  1  0.30253000  0.67164000  0.77241000  1
  O  O57  1  0.80020700  0.68082400  0.66256200  1
  O  O58  1  0.32031600  0.67085100  0.55624500  1
  O  O59  1  1.00000000  0.17164000  0.95506000  1
  O  O60  1  0.50000000  0.17164000  0.84126000  1
  O  O61  1  0.00021600  0.15531300  0.72933600  1
  O  O62  1  0.50315400  0.17882300  0.61864800  1
  O  O63  1  0.50000000  0.17164000  0.93115000  1
  O  O64  1  1.00000000  0.17164000  0.81736000  1
  O  O65  1  0.49812300  0.16728800  0.70383600  1
  O  O66  1  0.99710800  0.17096100  0.56758500  1
  O  O67  1  1.00000000  0.50000000  0.95668000  1
  O  O68  1  0.50000000  0.50000000  0.84289000  1
  O  O69  1  0.00049200  0.50002000  0.72830400  1
  O  O70  1  0.50531400  0.47656700  0.61553100  1
  O  O71  1  0.50000000  0.50000000  0.92952000  1
  O  O72  1  0.00000000  0.50000000  0.81573000  1
  O  O73  1  0.49942000  0.49722600  0.70081400  1
  O  O74  1  0.01278800  0.49095400  0.57254500  1
  O  O75  1  0.69034000  0.00000000  1.00000000  1
  O  O76  1  0.19034000  1.00000000  0.88621000  1
  O  O77  1  0.69034000  1.00000000  0.77241000  1
  O  O78  1  0.19884800  0.99122600  0.66134500  1
  O  O79  1  0.68082100  0.98712100  0.54084400  1
  O  O80  1  0.30966000  0.00000000  1.00000000  1
  O  O81  1  0.80966000  1.00000000  0.88621000  1
  O  O82  1  0.30966000  1.00000000  0.77241000  1
  O  O83  1  0.80298900  0.99282700  0.66200400  1
  O  O84  1  0.31352900  0.98169300  0.54129400  1
