# generated using pymatgen
data_MgTiMnVZnCrFeCoCuNiSb20ClO54
_symmetry_space_group_name_H-M   'P 1'
_cell_length_a   6.71080600
_cell_length_b   9.62761500
_cell_length_c   29.63889200
_cell_angle_alpha   89.78788300
_cell_angle_beta   89.93773000
_cell_angle_gamma   89.98539800
_symmetry_Int_Tables_number   1
_chemical_formula_structural   MgTiMnVZnCrFeCoCuNiSb20ClO54
_chemical_formula_sum
'Mg1 Ti1 Mn1 V1 Zn1 Cr1 Fe1 Co1 Cu1 Ni1 Sb20 Cl1 O54'
_cell_volume   1914.92653396
_cell_formula_units_Z   1
loop_
 _symmetry_equiv_pos_site_id
 _symmetry_equiv_pos_as_xyz
  1  'x, y, z'
loop_
 _atom_site_type_symbol
 _atom_site_label
 _atom_site_symmetry_multiplicity
 _atom_site_fract_x
 _atom_site_fract_y
 _atom_site_fract_z
 _atom_site_occupancy
  Mg  Mg0  1  0.99534200  0.34495200  0.44123500  1
  Ti  Ti1  1  0.49510300  0.50162100  0.44905100  1
  Mn  Mn2  1  0.00000000  0.83232000  0.11379000  1
  V  V3  1  0.49973900  0.31382400  0.33545800  1
  Zn  Zn4  1  0.00000000  0.33232000  0.22759000  1
  Cr  Cr5  1  0.99519500  0.02674100  0.44796200  1
  Fe  Fe6  1  0.49978300  0.00694400  0.33854800  1
  Co  Co7  1  0.50000000  0.16768000  1.00000000  1
  Cu  Cu8  1  0.99592300  0.67249100  0.43481400  1
  Ni  Ni9  1  0.50000000  0.16768000  0.22759000  1
  Sb  Sb10  1  0.00000000  0.00000000  0.00000000  1
  Sb  Sb11  1  0.50000000  0.00000000  0.11379000  1
  Sb  Sb12  1  0.00000000  1.00000000  0.22759000  1
  Sb  Sb13  1  0.50000000  0.50000000  1.00000000  1
  Sb  Sb14  1  0.00000000  0.50000000  0.11379000  1
  Sb  Sb15  1  0.50000000  0.50000000  0.22759000  1
  Sb  Sb16  1  0.99963400  0.49309500  0.33787800  1
  Sb  Sb17  1  0.00000000  0.33232000  0.00000000  1
  Sb  Sb18  1  0.50000000  0.33232000  0.11379000  1
  Sb  Sb19  1  0.50000000  0.83232000  1.00000000  1
  Sb  Sb20  1  0.50000000  0.83232000  0.22759000  1
  Sb  Sb21  1  0.99967500  0.84037900  0.34417600  1
  Sb  Sb22  1  0.49663600  0.80764900  0.44892100  1
  Sb  Sb23  1  0.00000000  0.16768000  0.11379000  1
  Sb  Sb24  1  0.99992900  0.16530100  0.33741200  1
  Sb  Sb25  1  0.49546800  0.19424000  0.45156700  1
  Sb  Sb26  1  1.00000000  0.66768000  0.00000000  1
  Sb  Sb27  1  0.50000000  0.66768000  0.11379000  1
  Sb  Sb28  1  0.00000000  0.66768000  0.22759000  1
  Sb  Sb29  1  0.49952900  0.65498200  0.33999700  1
  Cl  Cl30  1  0.49373900  0.54568900  0.52597000  1
  O  O31  1  0.00000000  0.17164000  0.04494000  1
  O  O32  1  0.50000000  0.17164000  0.15874000  1
  O  O33  1  0.00019600  0.15525700  0.27065200  1
  O  O34  1  0.50158000  0.18262600  0.38380700  1
  O  O35  1  0.50000000  0.17164000  0.06885000  1
  O  O36  1  0.00000000  0.17164000  0.18264000  1
  O  O37  1  0.49958600  0.18627600  0.29564700  1
  O  O38  1  0.00108300  0.16518100  0.40725500  1
  O  O39  1  0.69747000  0.67164000  1.00000000  1
  O  O40  1  0.19747000  0.67164000  0.11379000  1
  O  O41  1  0.69747000  0.67164000  0.22759000  1
  O  O42  1  0.20020800  0.65310000  0.33470900  1
  O  O43  1  0.69727900  0.65634100  0.44298900  1
  O  O44  1  0.30253000  0.67164000  1.00000000  1
  O  O45  1  0.80253000  0.67164000  0.11379000  1
  O  O46  1  0.30253000  0.67164000  0.22759000  1
  O  O47  1  0.79886500  0.65370000  0.33367000  1
  O  O48  1  0.29553300  0.65656600  0.44225200  1
  O  O49  1  0.69747000  0.32836000  1.00000000  1
  O  O50  1  0.19747000  0.32836000  0.11379000  1
  O  O51  1  0.69747000  0.32836000  0.22759000  1
  O  O52  1  0.19506100  0.32596100  0.33759500  1
  O  O53  1  0.69486000  0.35408700  0.45347100  1
  O  O54  1  0.30253000  0.32836000  1.00000000  1
  O  O55  1  0.80253000  0.32836000  0.11379000  1
  O  O56  1  0.30253000  0.32836000  0.22759000  1
  O  O57  1  0.80446100  0.32593400  0.33713200  1
  O  O58  1  0.29604300  0.35529300  0.45299700  1
  O  O59  1  0.00000000  0.82836000  0.04494000  1
  O  O60  1  0.50000000  0.82836000  0.15874000  1
  O  O61  1  0.00021600  0.84468700  0.27066400  1
  O  O62  1  0.50038000  0.82698200  0.38003200  1
  O  O63  1  0.50000000  0.82836000  0.06885000  1
  O  O64  1  0.00000000  0.82836000  0.18264000  1
  O  O65  1  0.49794400  0.82290500  0.29579400  1
  O  O66  1  0.99579000  0.87060700  0.42261300  1
  O  O67  1  0.00000000  0.50000000  0.04332000  1
  O  O68  1  0.50000000  0.50000000  0.15711000  1
  O  O69  1  0.00049200  0.49998000  0.27169600  1
  O  O70  1  0.49957800  0.48643800  0.37977800  1
  O  O71  1  0.50000000  0.50000000  0.07048000  1
  O  O72  1  0.00000000  0.50000000  0.18427000  1
  O  O73  1  0.49807800  0.49608900  0.29564100  1
  O  O74  1  0.99655300  0.50018300  0.40194200  1
  O  O75  1  0.69034000  1.00000000  1.00000000  1
  O  O76  1  0.19034000  0.00000000  0.11379000  1
  O  O77  1  0.69034000  1.00000000  0.22759000  1
  O  O78  1  0.20251400  0.01224600  0.33972400  1
  O  O79  1  0.78757300  0.04564400  0.47602300  1
  O  O80  1  0.30966000  0.00000000  1.00000000  1
  O  O81  1  0.80966000  1.00000000  0.11379000  1
  O  O82  1  0.30966000  0.00000000  0.22759000  1
  O  O83  1  0.79691100  0.01254000  0.33954100  1
  O  O84  1  0.19612400  0.04155300  0.47813300  1
