# generated using pymatgen
data_MgTiMnVZnCrFeCoCuNiSb20ClO54
_symmetry_space_group_name_H-M   'P 1'
_cell_length_a   6.70111000
_cell_length_b   9.57050900
_cell_length_c   28.79973600
_cell_angle_alpha   90.10931800
_cell_angle_beta   89.99790900
_cell_angle_gamma   89.99333700
_symmetry_Int_Tables_number   1
_chemical_formula_structural   MgTiMnVZnCrFeCoCuNiSb20ClO54
_chemical_formula_sum
'Mg1 Ti1 Mn1 V1 Zn1 Cr1 Fe1 Co1 Cu1 Ni1 Sb20 Cl1 O54'
_cell_volume   1847.01105997
_cell_formula_units_Z   1
loop_
 _symmetry_equiv_pos_site_id
 _symmetry_equiv_pos_as_xyz
  1  'x, y, z'
loop_
 _atom_site_type_symbol
 _atom_site_label
 _atom_site_symmetry_multiplicity
 _atom_site_fract_x
 _atom_site_fract_y
 _atom_site_fract_z
 _atom_site_occupancy
  Mg  Mg0  1  0.00000000  0.33232000  0.00000000  1
  Ti  Ti1  1  0.50171500  0.50559700  0.45235900  1
  Mn  Mn2  1  0.50000000  0.66768000  0.11379000  1
  V  V3  1  0.49969300  0.65685800  0.34116900  1
  Zn  Zn4  1  0.00000000  0.00000000  0.00000000  1
  Cr  Cr5  1  0.50121700  0.82153600  0.44500500  1
  Fe  Fe6  1  0.49952800  0.34152800  0.34096100  1
  Co  Co7  1  0.00001400  0.49985900  0.33756900  1
  Cu  Cu8  1  1.00000000  0.33232000  0.22759000  1
  Ni  Ni9  1  0.50000000  0.33232000  0.11379000  1
  Sb  Sb10  1  0.50000000  1.00000000  0.11379000  1
  Sb  Sb11  1  0.00000000  1.00000000  0.22759000  1
  Sb  Sb12  1  0.49904000  0.00197700  0.34378700  1
  Sb  Sb13  1  0.00220100  0.99887100  0.46186700  1
  Sb  Sb14  1  0.50000000  0.50000000  1.00000000  1
  Sb  Sb15  1  0.00000000  0.50000000  0.11379000  1
  Sb  Sb16  1  0.50000000  0.50000000  0.22759000  1
  Sb  Sb17  1  0.00000000  0.66768000  0.00000000  1
  Sb  Sb18  1  1.00000000  0.66768000  0.22759000  1
  Sb  Sb19  1  0.00102900  0.66071600  0.46124100  1
  Sb  Sb20  1  0.50000000  0.16768000  1.00000000  1
  Sb  Sb21  1  0.00000000  0.16768000  0.11379000  1
  Sb  Sb22  1  0.50000000  0.16768000  0.22759000  1
  Sb  Sb23  1  0.99912900  0.18222400  0.34062100  1
  Sb  Sb24  1  0.50297400  0.16485300  0.45814900  1
  Sb  Sb25  1  0.50000000  0.83232000  1.00000000  1
  Sb  Sb26  1  1.00000000  0.83232000  0.11379000  1
  Sb  Sb27  1  0.50000000  0.83232000  0.22759000  1
  Sb  Sb28  1  0.99977100  0.81970700  0.34494300  1
  Sb  Sb29  1  0.00055800  0.34368500  0.45693500  1
  Cl  Cl30  1  0.51269100  0.48907600  0.53283500  1
  O  O31  1  1.00000000  0.82836000  0.04494000  1
  O  O32  1  0.50000000  0.82836000  0.15874000  1
  O  O33  1  0.99980400  0.84474300  0.27065200  1
  O  O34  1  0.49862800  0.82132100  0.38173700  1
  O  O35  1  0.50000000  0.82836000  0.06885000  1
  O  O36  1  0.00000000  0.82836000  0.18264000  1
  O  O37  1  0.49947700  0.83493800  0.29680500  1
  O  O38  1  0.00341200  0.82832500  0.41608500  1
  O  O39  1  0.30253000  0.32836000  0.00000000  1
  O  O40  1  0.80253000  0.32836000  0.11379000  1
  O  O41  1  0.30253000  0.32836000  0.22759000  1
  O  O42  1  0.79944300  0.33462400  0.34163000  1
  O  O43  1  0.31000800  0.35601100  0.44681500  1
  O  O44  1  0.69747000  0.32836000  1.00000000  1
  O  O45  1  0.19747000  0.32836000  0.11379000  1
  O  O46  1  0.69747000  0.32836000  0.22759000  1
  O  O47  1  0.19969700  0.33427800  0.34172800  1
  O  O48  1  0.69332500  0.35518300  0.44521800  1
  O  O49  1  0.30253000  0.67164000  0.00000000  1
  O  O50  1  0.80253000  0.67164000  0.11379000  1
  O  O51  1  0.30253000  0.67164000  0.22759000  1
  O  O52  1  0.79589600  0.66671400  0.33848300  1
  O  O53  1  0.31646400  0.66906600  0.45304500  1
  O  O54  1  0.69747000  0.67164000  1.00000000  1
  O  O55  1  0.19747000  0.67164000  0.11379000  1
  O  O56  1  0.69747000  0.67164000  0.22759000  1
  O  O57  1  0.20393900  0.66670700  0.33840300  1
  O  O58  1  0.68672400  0.66989500  0.45218700  1
  O  O59  1  0.00000000  0.17164000  0.04494000  1
  O  O60  1  0.50000000  0.17164000  0.15874000  1
  O  O61  1  0.99978400  0.15531300  0.27066400  1
  O  O62  1  0.49985600  0.16377300  0.38764400  1
  O  O63  1  0.50000000  0.17164000  0.06885000  1
  O  O64  1  0.00000000  0.17164000  0.18264000  1
  O  O65  1  0.49996800  0.15993800  0.29778900  1
  O  O66  1  0.00110500  0.16636100  0.41414200  1
  O  O67  1  0.00000000  0.50000000  0.04332000  1
  O  O68  1  0.50000000  0.50000000  0.15711000  1
  O  O69  1  0.99950800  0.50002000  0.27169600  1
  O  O70  1  0.49986300  0.52357300  0.38279800  1
  O  O71  1  0.50000000  0.50000000  0.07048000  1
  O  O72  1  0.00000000  0.50000000  0.18427000  1
  O  O73  1  0.49971400  0.51108300  0.29663400  1
  O  O74  1  0.00235200  0.50880800  0.41158300  1
  O  O75  1  0.30966000  0.00000000  0.00000000  1
  O  O76  1  0.80966000  1.00000000  0.11379000  1
  O  O77  1  0.30966000  0.00000000  0.22759000  1
  O  O78  1  0.80840500  0.99863000  0.34327300  1
  O  O79  1  0.31095700  0.97542500  0.45193700  1
  O  O80  1  0.69034000  1.00000000  1.00000000  1
  O  O81  1  0.19034000  0.00000000  0.11379000  1
  O  O82  1  0.69034000  1.00000000  0.22759000  1
  O  O83  1  0.18989700  0.99920300  0.34341300  1
  O  O84  1  0.69215100  0.97487500  0.45147000  1
