# generated using pymatgen
data_MgTiMnVZnCrFeCoCuNiSb20ClO54
_symmetry_space_group_name_H-M   'P 1'
_cell_length_a   6.62844300
_cell_length_b   9.64207900
_cell_length_c   29.03707900
_cell_angle_alpha   90.18783100
_cell_angle_beta   89.88450900
_cell_angle_gamma   89.97441400
_symmetry_Int_Tables_number   1
_chemical_formula_structural   MgTiMnVZnCrFeCoCuNiSb20ClO54
_chemical_formula_sum
'Mg1 Ti1 Mn1 V1 Zn1 Cr1 Fe1 Co1 Cu1 Ni1 Sb20 Cl1 O54'
_cell_volume   1855.80301958
_cell_formula_units_Z   1
loop_
 _symmetry_equiv_pos_site_id
 _symmetry_equiv_pos_as_xyz
  1  'x, y, z'
loop_
 _atom_site_type_symbol
 _atom_site_label
 _atom_site_symmetry_multiplicity
 _atom_site_fract_x
 _atom_site_fract_y
 _atom_site_fract_z
 _atom_site_occupancy
  Mg  Mg0  1  0.99541500  0.98912400  0.55473000  1
  Ti  Ti1  1  0.49842800  0.52764100  0.54195400  1
  Mn  Mn2  1  0.00000000  0.33232000  0.00000000  1
  V  V3  1  0.49874200  0.84898800  0.54583500  1
  Zn  Zn4  1  0.00000000  0.16768000  0.88621000  1
  Cr  Cr5  1  0.00000000  0.66768000  0.00000000  1
  Fe  Fe6  1  0.50000000  0.83232000  0.00000000  1
  Co  Co7  1  0.00000000  0.33232000  0.77241000  1
  Cu  Cu8  1  0.00000000  0.83232000  0.88621000  1
  Ni  Ni9  1  0.99917600  0.49607500  0.66083200  1
  Sb  Sb10  1  0.00000000  0.00000000  0.00000000  1
  Sb  Sb11  1  0.50000000  1.00000000  0.88621000  1
  Sb  Sb12  1  1.00000000  1.00000000  0.77241000  1
  Sb  Sb13  1  0.50196200  0.01088300  0.65337200  1
  Sb  Sb14  1  0.50000000  0.50000000  0.00000000  1
  Sb  Sb15  1  1.00000000  0.50000000  0.88621000  1
  Sb  Sb16  1  0.50000000  0.50000000  0.77241000  1
  Sb  Sb17  1  0.50000000  0.66768000  0.88621000  1
  Sb  Sb18  1  0.00000000  0.66768000  0.77241000  1
  Sb  Sb19  1  0.50261600  0.67021600  0.65741000  1
  Sb  Sb20  1  0.99974500  0.65698400  0.53247000  1
  Sb  Sb21  1  0.50000000  0.16768000  0.00000000  1
  Sb  Sb22  1  0.50000000  0.16768000  0.77241000  1
  Sb  Sb23  1  0.99988900  0.17958800  0.65898500  1
  Sb  Sb24  1  0.49657200  0.19458600  0.53317400  1
  Sb  Sb25  1  0.50000000  0.83232000  0.77241000  1
  Sb  Sb26  1  0.00488500  0.81486100  0.65117100  1
  Sb  Sb27  1  0.50000000  0.33232000  0.88621000  1
  Sb  Sb28  1  0.49908000  0.34245000  0.64734300  1
  Sb  Sb29  1  0.00345400  0.33143800  0.54213100  1
  Cl  Cl30  1  0.46776400  0.45746900  0.46514800  1
  O  O31  1  1.00000000  0.82836000  0.95506000  1
  O  O32  1  0.50000000  0.82836000  0.84126000  1
  O  O33  1  0.00019600  0.84474300  0.72934800  1
  O  O34  1  0.50345700  0.83669000  0.61130700  1
  O  O35  1  0.50000000  0.82836000  0.93115000  1
  O  O36  1  0.00000000  0.82836000  0.81736000  1
  O  O37  1  0.49764500  0.84356700  0.69929400  1
  O  O38  1  0.99021300  0.80396900  0.57971800  1
  O  O39  1  0.69747000  0.32836000  0.00000000  1
  O  O40  1  0.19747000  0.32836000  0.88621000  1
  O  O41  1  0.69747000  0.32836000  0.77241000  1
  O  O42  1  0.18691100  0.33942800  0.65905500  1
  O  O43  1  0.68752000  0.35201300  0.55024300  1
  O  O44  1  0.30253000  0.32836000  0.00000000  1
  O  O45  1  0.80253000  0.32836000  0.88621000  1
  O  O46  1  0.30253000  0.32836000  0.77241000  1
  O  O47  1  0.81136100  0.33902500  0.65885600  1
  O  O48  1  0.31424900  0.35142000  0.55654000  1
  O  O49  1  0.69747000  0.67164000  0.00000000  1
  O  O50  1  0.19747000  0.67164000  0.88621000  1
  O  O51  1  0.69747000  0.67164000  0.77241000  1
  O  O52  1  0.20611700  0.65510900  0.66013600  1
  O  O53  1  0.67797600  0.67346300  0.53683200  1
  O  O54  1  0.30253000  0.67164000  0.00000000  1
  O  O55  1  0.80253000  0.67164000  0.88621000  1
  O  O56  1  0.30253000  0.67164000  0.77241000  1
  O  O57  1  0.79972900  0.66011100  0.66226700  1
  O  O58  1  0.31641300  0.67282800  0.54195500  1
  O  O59  1  0.00000000  0.17164000  0.95506000  1
  O  O60  1  0.50000000  0.17164000  0.84126000  1
  O  O61  1  0.00021600  0.15531300  0.72933600  1
  O  O62  1  0.50900200  0.14148400  0.60094100  1
  O  O63  1  0.50000000  0.17164000  0.93115000  1
  O  O64  1  1.00000000  0.17164000  0.81736000  1
  O  O65  1  0.50231400  0.16034900  0.70195300  1
  O  O66  1  0.99753100  0.17141100  0.58698600  1
  O  O67  1  1.00000000  0.50000000  0.95668000  1
  O  O68  1  0.50000000  0.50000000  0.84289000  1
  O  O69  1  0.00049200  0.50002000  0.72830400  1
  O  O70  1  0.51227200  0.52862600  0.60924500  1
  O  O71  1  0.50000000  0.50000000  0.92952000  1
  O  O72  1  1.00000000  0.50000000  0.81573000  1
  O  O73  1  0.50208600  0.50633700  0.70089400  1
  O  O74  1  0.99576500  0.50506200  0.58086400  1
  O  O75  1  0.69034000  0.00000000  0.00000000  1
  O  O76  1  0.19034000  1.00000000  0.88621000  1
  O  O77  1  0.69034000  1.00000000  0.77241000  1
  O  O78  1  0.20276400  0.02096200  0.65267900  1
  O  O79  1  0.70149700  0.95897900  0.53342700  1
  O  O80  1  0.30966000  0.00000000  0.00000000  1
  O  O81  1  0.80966000  1.00000000  0.88621000  1
  O  O82  1  0.30966000  1.00000000  0.77241000  1
  O  O83  1  0.80226400  0.01692000  0.65374900  1
  O  O84  1  0.29193300  0.95508300  0.53468200  1
