# generated using pymatgen
data_MgTiMnVZnCrFeCoCuNiSb20ClO54
_symmetry_space_group_name_H-M   'P 1'
_cell_length_a   6.63437700
_cell_length_b   9.56372300
_cell_length_c   28.85342300
_cell_angle_alpha   90.33393200
_cell_angle_beta   89.87743300
_cell_angle_gamma   89.97606700
_symmetry_Int_Tables_number   1
_chemical_formula_structural   MgTiMnVZnCrFeCoCuNiSb20ClO54
_chemical_formula_sum
'Mg1 Ti1 Mn1 V1 Zn1 Cr1 Fe1 Co1 Cu1 Ni1 Sb20 Cl1 O54'
_cell_volume   1830.69530749
_cell_formula_units_Z   1
loop_
 _symmetry_equiv_pos_site_id
 _symmetry_equiv_pos_as_xyz
  1  'x, y, z'
loop_
 _atom_site_type_symbol
 _atom_site_label
 _atom_site_symmetry_multiplicity
 _atom_site_fract_x
 _atom_site_fract_y
 _atom_site_fract_z
 _atom_site_occupancy
  Mg  Mg0  1  0.49782200  0.34093900  0.34263200  1
  Ti  Ti1  1  0.49360000  0.49766300  0.45431000  1
  Mn  Mn2  1  0.99193400  0.34426200  0.44557500  1
  V  V3  1  0.50000000  0.83232000  1.00000000  1
  Zn  Zn4  1  0.00000000  0.66768000  1.00000000  1
  Cr  Cr5  1  0.50000000  0.83232000  0.22759000  1
  Fe  Fe6  1  0.50000000  0.50000000  0.22759000  1
  Co  Co7  1  0.50056000  0.81585100  0.45223900  1
  Cu  Cu8  1  0.50000000  0.33232000  0.11379000  1
  Ni  Ni9  1  0.50000000  0.00000000  0.11379000  1
  Sb  Sb10  1  0.00000000  0.00000000  0.00000000  1
  Sb  Sb11  1  1.00000000  0.00000000  0.22759000  1
  Sb  Sb12  1  0.49737100  0.00268300  0.34054200  1
  Sb  Sb13  1  0.99490300  0.97163500  0.48224700  1
  Sb  Sb14  1  0.50000000  0.50000000  0.00000000  1
  Sb  Sb15  1  1.00000000  0.50000000  0.11379000  1
  Sb  Sb16  1  0.99656600  0.50021300  0.34186200  1
  Sb  Sb17  1  0.50000000  0.66768000  0.11379000  1
  Sb  Sb18  1  0.00000000  0.66768000  0.22759000  1
  Sb  Sb19  1  0.49784000  0.65911100  0.33860700  1
  Sb  Sb20  1  0.00248000  0.64840300  0.46607600  1
  Sb  Sb21  1  0.50000000  0.16768000  1.00000000  1
  Sb  Sb22  1  1.00000000  0.16768000  0.11379000  1
  Sb  Sb23  1  0.50000000  0.16768000  0.22759000  1
  Sb  Sb24  1  0.99655500  0.18388500  0.35759200  1
  Sb  Sb25  1  0.49168500  0.14554200  0.45985900  1
  Sb  Sb26  1  1.00000000  0.83232000  0.11379000  1
  Sb  Sb27  1  0.99695600  0.84195400  0.35097400  1
  Sb  Sb28  1  0.00000000  0.33232000  1.00000000  1
  Sb  Sb29  1  1.00000000  0.33232000  0.22759000  1
  Cl  Cl30  1  0.51680800  0.49081500  0.53483900  1
  O  O31  1  1.00000000  0.82836000  0.04494000  1
  O  O32  1  0.50000000  0.82836000  0.15874000  1
  O  O33  1  0.99980400  0.84474300  0.27065200  1
  O  O34  1  0.50045200  0.83079000  0.38221700  1
  O  O35  1  0.50000000  0.82836000  0.06885000  1
  O  O36  1  0.00000000  0.82836000  0.18264000  1
  O  O37  1  0.49769600  0.83381300  0.29584400  1
  O  O38  1  0.00067200  0.82829700  0.42847500  1
  O  O39  1  0.30253000  0.32836000  1.00000000  1
  O  O40  1  0.80253000  0.32836000  0.11379000  1
  O  O41  1  0.30253000  0.32836000  0.22759000  1
  O  O42  1  0.80194600  0.34478200  0.33753300  1
  O  O43  1  0.26950700  0.37830600  0.45154300  1
  O  O44  1  0.69747000  0.32836000  1.00000000  1
  O  O45  1  0.19747000  0.32836000  0.11379000  1
  O  O46  1  0.69747000  0.32836000  0.22759000  1
  O  O47  1  0.19377200  0.34520800  0.33865900  1
  O  O48  1  0.71340000  0.35780500  0.45071400  1
  O  O49  1  0.30253000  0.67164000  1.00000000  1
  O  O50  1  0.80253000  0.67164000  0.11379000  1
  O  O51  1  0.30253000  0.67164000  0.22759000  1
  O  O52  1  0.80306100  0.66011600  0.33417300  1
  O  O53  1  0.31754000  0.66636600  0.45667000  1
  O  O54  1  0.69747000  0.67164000  1.00000000  1
  O  O55  1  0.19747000  0.67164000  0.11379000  1
  O  O56  1  0.69747000  0.67164000  0.22759000  1
  O  O57  1  0.19300700  0.65912900  0.33709500  1
  O  O58  1  0.68151600  0.67285800  0.45608600  1
  O  O59  1  1.00000000  0.17164000  0.04494000  1
  O  O60  1  0.50000000  0.17164000  0.15874000  1
  O  O61  1  0.99978400  0.15531300  0.27066400  1
  O  O62  1  0.49084300  0.15706200  0.38852000  1
  O  O63  1  0.50000000  0.17164000  0.06885000  1
  O  O64  1  0.00000000  0.17164000  0.18264000  1
  O  O65  1  0.49901800  0.16668200  0.29643600  1
  O  O66  1  0.03129600  0.15813400  0.45665900  1
  O  O67  1  1.00000000  0.50000000  0.04332000  1
  O  O68  1  0.50000000  0.50000000  0.15711000  1
  O  O69  1  0.99950800  0.50002000  0.27169600  1
  O  O70  1  0.50595800  0.51324100  0.38560000  1
  O  O71  1  0.50000000  0.50000000  0.07048000  1
  O  O72  1  1.00000000  0.50000000  0.18427000  1
  O  O73  1  0.49734500  0.50543200  0.29353000  1
  O  O74  1  0.98347600  0.51669000  0.41005800  1
  O  O75  1  0.30966000  1.00000000  1.00000000  1
  O  O76  1  0.80966000  0.00000000  0.11379000  1
  O  O77  1  0.30966000  1.00000000  0.22759000  1
  O  O78  1  0.79456100  0.01128800  0.33836200  1
  O  O79  1  0.31467800  0.96012100  0.46241000  1
  O  O80  1  0.69034000  0.00000000  0.00000000  1
  O  O81  1  0.19034000  1.00000000  0.11379000  1
  O  O82  1  0.69034000  0.00000000  0.22759000  1
  O  O83  1  0.19915600  0.01185700  0.33834300  1
  O  O84  1  0.69059200  0.97693400  0.45849200  1
