# generated using pymatgen
data_MgTiMnVZnCrFeCoCuNiSb20ClO54
_symmetry_space_group_name_H-M   'P 1'
_cell_length_a   6.66341700
_cell_length_b   9.53304000
_cell_length_c   28.53235100
_cell_angle_alpha   89.86811900
_cell_angle_beta   89.96440500
_cell_angle_gamma   89.99264900
_symmetry_Int_Tables_number   1
_chemical_formula_structural   MgTiMnVZnCrFeCoCuNiSb20ClO54
_chemical_formula_sum
'Mg1 Ti1 Mn1 V1 Zn1 Cr1 Fe1 Co1 Cu1 Ni1 Sb20 Cl1 O54'
_cell_volume   1812.44454744
_cell_formula_units_Z   1
loop_
 _symmetry_equiv_pos_site_id
 _symmetry_equiv_pos_as_xyz
  1  'x, y, z'
loop_
 _atom_site_type_symbol
 _atom_site_label
 _atom_site_symmetry_multiplicity
 _atom_site_fract_x
 _atom_site_fract_y
 _atom_site_fract_z
 _atom_site_occupancy
  Mg  Mg0  1  0.50000000  0.33232000  0.11379000  1
  Ti  Ti1  1  0.50050400  0.49021600  0.45992800  1
  Mn  Mn2  1  0.49921800  0.99703700  0.34507800  1
  V  V3  1  0.00000000  0.66768000  0.22759000  1
  Zn  Zn4  1  0.50056000  0.17055300  0.45212500  1
  Cr  Cr5  1  0.50000000  0.66768000  0.11379000  1
  Fe  Fe6  1  0.00000000  0.66768000  1.00000000  1
  Co  Co7  1  0.00000000  0.16768000  0.11379000  1
  Cu  Cu8  1  0.00000000  0.00000000  0.00000000  1
  Ni  Ni9  1  0.99977100  0.49712200  0.34197900  1
  Sb  Sb10  1  0.50000000  0.00000000  0.11379000  1
  Sb  Sb11  1  0.00000000  0.00000000  0.22759000  1
  Sb  Sb12  1  0.00019800  0.99519100  0.46786300  1
  Sb  Sb13  1  0.50000000  0.50000000  1.00000000  1
  Sb  Sb14  1  0.00000000  0.50000000  0.11379000  1
  Sb  Sb15  1  0.50000000  0.50000000  0.22759000  1
  Sb  Sb16  1  0.49979300  0.67060700  0.34861200  1
  Sb  Sb17  1  0.99804500  0.65523800  0.45973900  1
  Sb  Sb18  1  0.50000000  0.16768000  1.00000000  1
  Sb  Sb19  1  0.50000000  0.16768000  0.22759000  1
  Sb  Sb20  1  0.99956600  0.16558000  0.34680700  1
  Sb  Sb21  1  0.50000000  0.83232000  1.00000000  1
  Sb  Sb22  1  0.00000000  0.83232000  0.11379000  1
  Sb  Sb23  1  0.50000000  0.83232000  0.22759000  1
  Sb  Sb24  1  0.00001000  0.82978900  0.34384900  1
  Sb  Sb25  1  0.50044200  0.83378100  0.46554300  1
  Sb  Sb26  1  0.00000000  0.33232000  1.00000000  1
  Sb  Sb27  1  0.00000000  0.33232000  0.22759000  1
  Sb  Sb28  1  0.49912900  0.32601100  0.34390000  1
  Sb  Sb29  1  0.99957200  0.33696000  0.46269400  1
  Cl  Cl30  1  0.51816400  0.51837600  0.53925400  1
  O  O31  1  0.00000000  0.82836000  0.04494000  1
  O  O32  1  0.50000000  0.82836000  0.15874000  1
  O  O33  1  0.99980400  0.84474300  0.27065200  1
  O  O34  1  0.49579400  0.83349100  0.39126400  1
  O  O35  1  0.50000000  0.82836000  0.06885000  1
  O  O36  1  0.00000000  0.82836000  0.18264000  1
  O  O37  1  0.50015000  0.83407800  0.29918800  1
  O  O38  1  0.00164500  0.83107200  0.41560900  1
  O  O39  1  0.30253000  0.32836000  1.00000000  1
  O  O40  1  0.80253000  0.32836000  0.11379000  1
  O  O41  1  0.30253000  0.32836000  0.22759000  1
  O  O42  1  0.80555000  0.32724000  0.33977700  1
  O  O43  1  0.31027600  0.34138000  0.45511500  1
  O  O44  1  0.69747000  0.32836000  1.00000000  1
  O  O45  1  0.19747000  0.32836000  0.11379000  1
  O  O46  1  0.69747000  0.32836000  0.22759000  1
  O  O47  1  0.19309800  0.32704700  0.33947400  1
  O  O48  1  0.69036700  0.34074600  0.45323800  1
  O  O49  1  0.30253000  0.67164000  1.00000000  1
  O  O50  1  0.80253000  0.67164000  0.11379000  1
  O  O51  1  0.30253000  0.67164000  0.22759000  1
  O  O52  1  0.80522000  0.66763400  0.34135400  1
  O  O53  1  0.30650300  0.64324000  0.45003700  1
  O  O54  1  0.69747000  0.67164000  1.00000000  1
  O  O55  1  0.19747000  0.67164000  0.11379000  1
  O  O56  1  0.69747000  0.67164000  0.22759000  1
  O  O57  1  0.19432200  0.66757100  0.34113600  1
  O  O58  1  0.69132400  0.64492000  0.44710700  1
  O  O59  1  0.00000000  0.17164000  0.04494000  1
  O  O60  1  0.50000000  0.17164000  0.15874000  1
  O  O61  1  0.99978400  0.15531300  0.27066400  1
  O  O62  1  0.49566100  0.16011400  0.38320000  1
  O  O63  1  0.50000000  0.17164000  0.06885000  1
  O  O64  1  0.00000000  0.17164000  0.18264000  1
  O  O65  1  0.50004000  0.16567200  0.29596000  1
  O  O66  1  0.00196700  0.16537000  0.41749000  1
  O  O67  1  0.00000000  0.50000000  0.04332000  1
  O  O68  1  0.50000000  0.50000000  0.15711000  1
  O  O69  1  0.99950800  0.50002000  0.27169600  1
  O  O70  1  0.49499300  0.49178900  0.38574600  1
  O  O71  1  0.50000000  0.50000000  0.07048000  1
  O  O72  1  0.00000000  0.50000000  0.18427000  1
  O  O73  1  0.50063200  0.49950000  0.29855900  1
  O  O74  1  0.00168400  0.49209700  0.41317000  1
  O  O75  1  0.30966000  0.00000000  0.00000000  1
  O  O76  1  0.80966000  0.00000000  0.11379000  1
  O  O77  1  0.30966000  0.00000000  0.22759000  1
  O  O78  1  0.80459900  0.99798300  0.34274000  1
  O  O79  1  0.30441400  0.00494800  0.45641200  1
  O  O80  1  0.69034000  0.00000000  0.00000000  1
  O  O81  1  0.19034000  0.00000000  0.11379000  1
  O  O82  1  0.69034000  0.00000000  0.22759000  1
  O  O83  1  0.19406800  0.99796600  0.34243800  1
  O  O84  1  0.69681900  0.00406000  0.45526800  1
