# generated using pymatgen
data_MgTiMnVZnCrFeCoCuNiSb20ClO54
_symmetry_space_group_name_H-M   'P 1'
_cell_length_a   6.68425200
_cell_length_b   9.51691800
_cell_length_c   29.05828500
_cell_angle_alpha   89.94423700
_cell_angle_beta   89.96267400
_cell_angle_gamma   89.99825500
_symmetry_Int_Tables_number   1
_chemical_formula_structural   MgTiMnVZnCrFeCoCuNiSb20ClO54
_chemical_formula_sum
'Mg1 Ti1 Mn1 V1 Zn1 Cr1 Fe1 Co1 Cu1 Ni1 Sb20 Cl1 O54'
_cell_volume   1848.49731013
_cell_formula_units_Z   1
loop_
 _symmetry_equiv_pos_site_id
 _symmetry_equiv_pos_as_xyz
  1  'x, y, z'
loop_
 _atom_site_type_symbol
 _atom_site_label
 _atom_site_symmetry_multiplicity
 _atom_site_fract_x
 _atom_site_fract_y
 _atom_site_fract_z
 _atom_site_occupancy
  Mg  Mg0  1  1.00000000  0.66768000  0.77241000  1
  Ti  Ti1  1  0.50005300  0.49637500  0.55945700  1
  Mn  Mn2  1  0.00000000  0.66768000  0.00000000  1
  V  V3  1  0.00011600  0.18067900  0.65618700  1
  Zn  Zn4  1  0.99897900  0.00195900  0.55725000  1
  Cr  Cr5  1  0.50074500  0.66330500  0.66192900  1
  Fe  Fe6  1  0.50000000  0.33232000  0.88621000  1
  Co  Co7  1  0.50000000  0.50000000  0.00000000  1
  Cu  Cu8  1  1.00000000  0.16768000  0.88621000  1
  Ni  Ni9  1  0.50075700  0.33248500  0.66092000  1
  Sb  Sb10  1  0.00000000  0.00000000  0.00000000  1
  Sb  Sb11  1  0.50000000  0.00000000  0.88621000  1
  Sb  Sb12  1  1.00000000  1.00000000  0.77241000  1
  Sb  Sb13  1  0.50096900  0.00186700  0.65515100  1
  Sb  Sb14  1  1.00000000  0.50000000  0.88621000  1
  Sb  Sb15  1  0.50000000  0.50000000  0.77241000  1
  Sb  Sb16  1  0.00014000  0.49737900  0.66012200  1
  Sb  Sb17  1  0.50000000  0.66768000  0.88621000  1
  Sb  Sb18  1  0.00244500  0.67020800  0.54489300  1
  Sb  Sb19  1  0.50000000  0.16768000  0.00000000  1
  Sb  Sb20  1  0.50000000  0.16768000  0.77241000  1
  Sb  Sb21  1  0.49912000  0.16721700  0.54138200  1
  Sb  Sb22  1  0.50000000  0.83232000  0.00000000  1
  Sb  Sb23  1  1.00000000  0.83232000  0.88621000  1
  Sb  Sb24  1  0.50000000  0.83232000  0.77241000  1
  Sb  Sb25  1  0.00042900  0.83443200  0.66030400  1
  Sb  Sb26  1  0.49980400  0.82358600  0.54126900  1
  Sb  Sb27  1  0.00000000  0.33232000  0.00000000  1
  Sb  Sb28  1  1.00000000  0.33232000  0.77241000  1
  Sb  Sb29  1  0.00169000  0.32912700  0.54441700  1
  Cl  Cl30  1  0.48051700  0.50149500  0.47671800  1
  O  O31  1  1.00000000  0.82836000  0.95506000  1
  O  O32  1  0.50000000  0.82836000  0.84126000  1
  O  O33  1  0.00019600  0.84474300  0.72934800  1
  O  O34  1  0.50289200  0.82929500  0.61645200  1
  O  O35  1  0.50000000  0.82836000  0.93115000  1
  O  O36  1  1.00000000  0.82836000  0.81736000  1
  O  O37  1  0.49995500  0.83993600  0.70320500  1
  O  O38  1  0.99619500  0.82224500  0.59291200  1
  O  O39  1  0.69747000  0.32836000  0.00000000  1
  O  O40  1  0.19747000  0.32836000  0.88621000  1
  O  O41  1  0.69747000  0.32836000  0.77241000  1
  O  O42  1  0.18728600  0.32481200  0.66225400  1
  O  O43  1  0.69710500  0.34705500  0.55775300  1
  O  O44  1  0.30253000  0.32836000  0.00000000  1
  O  O45  1  0.80253000  0.32836000  0.88621000  1
  O  O46  1  0.30253000  0.32836000  0.77241000  1
  O  O47  1  0.81344300  0.32495300  0.66307500  1
  O  O48  1  0.30318100  0.34607900  0.56028300  1
  O  O49  1  0.69747000  0.67164000  0.00000000  1
  O  O50  1  0.19747000  0.67164000  0.88621000  1
  O  O51  1  0.69747000  0.67164000  0.77241000  1
  O  O52  1  0.19442900  0.66728000  0.66328300  1
  O  O53  1  0.69523900  0.65288900  0.55735200  1
  O  O54  1  0.30253000  0.67164000  0.00000000  1
  O  O55  1  0.80253000  0.67164000  0.88621000  1
  O  O56  1  0.30253000  0.67164000  0.77241000  1
  O  O57  1  0.80641500  0.66747800  0.66345500  1
  O  O58  1  0.30573300  0.65455600  0.56018000  1
  O  O59  1  1.00000000  0.17164000  0.95506000  1
  O  O60  1  0.50000000  0.17164000  0.84126000  1
  O  O61  1  0.00021600  0.15531300  0.72933600  1
  O  O62  1  0.50163300  0.16558700  0.61428800  1
  O  O63  1  0.50000000  0.17164000  0.93115000  1
  O  O64  1  1.00000000  0.17164000  0.81736000  1
  O  O65  1  0.49949400  0.15960700  0.70343100  1
  O  O66  1  0.99685900  0.18020900  0.59547700  1
  O  O67  1  1.00000000  0.50000000  0.95668000  1
  O  O68  1  0.50000000  0.50000000  0.84289000  1
  O  O69  1  0.00049200  0.50002000  0.72830400  1
  O  O70  1  0.50437600  0.50468400  0.62397900  1
  O  O71  1  0.50000000  0.50000000  0.92952000  1
  O  O72  1  1.00000000  0.50000000  0.81573000  1
  O  O73  1  0.49887600  0.49970000  0.70544200  1
  O  O74  1  0.99886700  0.49959400  0.58941300  1
  O  O75  1  0.69034000  1.00000000  0.00000000  1
  O  O76  1  0.19034000  0.00000000  0.88621000  1
  O  O77  1  0.69034000  1.00000000  0.77241000  1
  O  O78  1  0.19008700  0.00366700  0.65939900  1
  O  O79  1  0.71649300  0.99955800  0.54762400  1
  O  O80  1  0.30966000  0.00000000  0.00000000  1
  O  O81  1  0.80966000  1.00000000  0.88621000  1
  O  O82  1  0.30966000  0.00000000  0.77241000  1
  O  O83  1  0.81113500  0.00408100  0.65971900  1
  O  O84  1  0.28169600  0.99936900  0.54805100  1
