# generated using pymatgen
data_MgTiMnVZnCrFeCoCuNiSb20ClO54
_symmetry_space_group_name_H-M   'P 1'
_cell_length_a   6.72616100
_cell_length_b   9.45828200
_cell_length_c   29.29804900
_cell_angle_alpha   89.96449000
_cell_angle_beta   89.95813300
_cell_angle_gamma   89.97827100
_symmetry_Int_Tables_number   1
_chemical_formula_structural   MgTiMnVZnCrFeCoCuNiSb20ClO54
_chemical_formula_sum
'Mg1 Ti1 Mn1 V1 Zn1 Cr1 Fe1 Co1 Cu1 Ni1 Sb20 Cl1 O54'
_cell_volume   1863.88016833
_cell_formula_units_Z   1
loop_
 _symmetry_equiv_pos_site_id
 _symmetry_equiv_pos_as_xyz
  1  'x, y, z'
loop_
 _atom_site_type_symbol
 _atom_site_label
 _atom_site_symmetry_multiplicity
 _atom_site_fract_x
 _atom_site_fract_y
 _atom_site_fract_z
 _atom_site_occupancy
  Mg  Mg0  1  0.00000000  0.33232000  0.22759000  1
  Ti  Ti1  1  0.50084500  0.50150900  0.44189000  1
  Mn  Mn2  1  0.49857400  0.33510000  0.33462500  1
  V  V3  1  0.50000000  1.00000000  0.11379000  1
  Zn  Zn4  1  0.49946700  0.67050800  0.34158300  1
  Cr  Cr5  1  0.00000000  1.00000000  0.22759000  1
  Fe  Fe6  1  1.00000000  0.83232000  0.11379000  1
  Co  Co7  1  0.00052400  0.01385000  0.44238800  1
  Cu  Cu8  1  0.49901000  0.99663500  0.33538200  1
  Ni  Ni9  1  0.50000000  0.16768000  1.00000000  1
  Sb  Sb10  1  0.00000000  0.00000000  0.00000000  1
  Sb  Sb11  1  0.50000000  0.50000000  1.00000000  1
  Sb  Sb12  1  1.00000000  0.50000000  0.11379000  1
  Sb  Sb13  1  0.50000000  0.50000000  0.22759000  1
  Sb  Sb14  1  0.99933400  0.50029100  0.33973000  1
  Sb  Sb15  1  1.00000000  0.66768000  0.00000000  1
  Sb  Sb16  1  0.50000000  0.66768000  0.11379000  1
  Sb  Sb17  1  1.00000000  0.66768000  0.22759000  1
  Sb  Sb18  1  0.99688700  0.66467900  0.45497900  1
  Sb  Sb19  1  0.00000000  0.16768000  0.11379000  1
  Sb  Sb20  1  0.50000000  0.16768000  0.22759000  1
  Sb  Sb21  1  0.99919900  0.16312100  0.33618800  1
  Sb  Sb22  1  0.49888100  0.16852400  0.44028500  1
  Sb  Sb23  1  0.50000000  0.83232000  1.00000000  1
  Sb  Sb24  1  0.50000000  0.83232000  0.22759000  1
  Sb  Sb25  1  0.99980700  0.83411400  0.34125100  1
  Sb  Sb26  1  0.50071700  0.82855300  0.44968200  1
  Sb  Sb27  1  0.00000000  0.33232000  0.00000000  1
  Sb  Sb28  1  0.50000000  0.33232000  0.11379000  1
  Sb  Sb29  1  0.99883800  0.31865100  0.45605900  1
  Cl  Cl30  1  0.52518400  0.51637100  0.52288000  1
  O  O31  1  1.00000000  0.82836000  0.04494000  1
  O  O32  1  0.50000000  0.82836000  0.15874000  1
  O  O33  1  0.99980400  0.84474300  0.27065200  1
  O  O34  1  0.49637500  0.84472000  0.38336700  1
  O  O35  1  0.50000000  0.82836000  0.06885000  1
  O  O36  1  1.00000000  0.82836000  0.18264000  1
  O  O37  1  0.49995700  0.83004000  0.29373100  1
  O  O38  1  0.00140000  0.82998500  0.41155700  1
  O  O39  1  0.30253000  0.32836000  1.00000000  1
  O  O40  1  0.80253000  0.32836000  0.11379000  1
  O  O41  1  0.30253000  0.32836000  0.22759000  1
  O  O42  1  0.80453600  0.33532800  0.33730300  1
  O  O43  1  0.31342700  0.33182900  0.45005800  1
  O  O44  1  0.69747000  0.32836000  1.00000000  1
  O  O45  1  0.19747000  0.32836000  0.11379000  1
  O  O46  1  0.69747000  0.32836000  0.22759000  1
  O  O47  1  0.19353400  0.33512400  0.33615700  1
  O  O48  1  0.68855400  0.33052200  0.44666100  1
  O  O49  1  0.30253000  0.67164000  1.00000000  1
  O  O50  1  0.80253000  0.67164000  0.11379000  1
  O  O51  1  0.30253000  0.67164000  0.22759000  1
  O  O52  1  0.81051300  0.66623100  0.34016900  1
  O  O53  1  0.30444200  0.64475200  0.44162200  1
  O  O54  1  0.69747000  0.67164000  1.00000000  1
  O  O55  1  0.19747000  0.67164000  0.11379000  1
  O  O56  1  0.69747000  0.67164000  0.22759000  1
  O  O57  1  0.18826400  0.66600800  0.34023000  1
  O  O58  1  0.69589500  0.64475300  0.43769700  1
  O  O59  1  0.00000000  0.17164000  0.04494000  1
  O  O60  1  0.50000000  0.17164000  0.15874000  1
  O  O61  1  0.99978400  0.15531300  0.27066400  1
  O  O62  1  0.49542200  0.17364300  0.37438400  1
  O  O63  1  0.50000000  0.17164000  0.06885000  1
  O  O64  1  0.00000000  0.17164000  0.18264000  1
  O  O65  1  0.50167200  0.17302000  0.29468600  1
  O  O66  1  0.00571300  0.18131600  0.40445000  1
  O  O67  1  1.00000000  0.50000000  0.04332000  1
  O  O68  1  0.50000000  0.50000000  0.15711000  1
  O  O69  1  0.99950800  0.50002000  0.27169600  1
  O  O70  1  0.49521800  0.47484200  0.37790300  1
  O  O71  1  0.50000000  0.50000000  0.07048000  1
  O  O72  1  1.00000000  0.50000000  0.18427000  1
  O  O73  1  0.50076200  0.49588300  0.29441900  1
  O  O74  1  0.00335600  0.49103000  0.41077800  1
  O  O75  1  0.30966000  0.00000000  1.00000000  1
  O  O76  1  0.80966000  1.00000000  0.11379000  1
  O  O77  1  0.30966000  1.00000000  0.22759000  1
  O  O78  1  0.80791700  0.99742200  0.34242500  1
  O  O79  1  0.28503300  0.02215600  0.45558400  1
  O  O80  1  0.69034000  0.00000000  1.00000000  1
  O  O81  1  0.19034000  1.00000000  0.11379000  1
  O  O82  1  0.69034000  1.00000000  0.22759000  1
  O  O83  1  0.19048600  0.99738100  0.34194800  1
  O  O84  1  0.71571700  0.02438300  0.45510500  1
