# generated using pymatgen
data_MgTiMnVZnCrFeCoCuNiSb20ClO54
_symmetry_space_group_name_H-M   'P 1'
_cell_length_a   6.66945200
_cell_length_b   9.64284500
_cell_length_c   28.94967000
_cell_angle_alpha   89.85261800
_cell_angle_beta   89.50800600
_cell_angle_gamma   89.87096400
_symmetry_Int_Tables_number   1
_chemical_formula_structural   MgTiMnVZnCrFeCoCuNiSb20ClO54
_chemical_formula_sum
'Mg1 Ti1 Mn1 V1 Zn1 Cr1 Fe1 Co1 Cu1 Ni1 Sb20 Cl1 O54'
_cell_volume   1861.74598706
_cell_formula_units_Z   1
loop_
 _symmetry_equiv_pos_site_id
 _symmetry_equiv_pos_as_xyz
  1  'x, y, z'
loop_
 _atom_site_type_symbol
 _atom_site_label
 _atom_site_symmetry_multiplicity
 _atom_site_fract_x
 _atom_site_fract_y
 _atom_site_fract_z
 _atom_site_occupancy
  Mg  Mg0  1  0.00000000  0.33232000  0.22759000  1
  Ti  Ti1  1  0.42881600  0.46794100  0.45574400  1
  Mn  Mn2  1  1.00000000  0.33232000  1.00000000  1
  V  V3  1  0.50000000  0.50000000  0.22759000  1
  Zn  Zn4  1  0.50000000  0.66768000  0.11379000  1
  Cr  Cr5  1  0.98699800  0.50669200  0.33553300  1
  Fe  Fe6  1  0.02328000  0.67913800  0.43179500  1
  Co  Co7  1  0.94695300  0.35813600  0.44186500  1
  Cu  Cu8  1  0.55118500  0.17850900  0.45418800  1
  Ni  Ni9  1  0.00000000  0.16768000  0.11379000  1
  Sb  Sb10  1  0.00000000  0.00000000  0.00000000  1
  Sb  Sb11  1  0.50000000  0.00000000  0.11379000  1
  Sb  Sb12  1  0.00000000  0.00000000  0.22759000  1
  Sb  Sb13  1  0.48964600  0.00931800  0.34371100  1
  Sb  Sb14  1  0.04075700  0.04749900  0.46619700  1
  Sb  Sb15  1  0.50000000  0.50000000  1.00000000  1
  Sb  Sb16  1  0.00000000  0.50000000  0.11379000  1
  Sb  Sb17  1  1.00000000  0.66768000  1.00000000  1
  Sb  Sb18  1  0.00000000  0.66768000  0.22759000  1
  Sb  Sb19  1  0.47453500  0.65947500  0.35759300  1
  Sb  Sb20  1  0.50000000  0.16768000  1.00000000  1
  Sb  Sb21  1  0.50000000  0.16768000  0.22759000  1
  Sb  Sb22  1  0.99612900  0.17302000  0.33969500  1
  Sb  Sb23  1  0.50000000  0.83232000  1.00000000  1
  Sb  Sb24  1  0.00000000  0.83232000  0.11379000  1
  Sb  Sb25  1  0.50000000  0.83232000  0.22759000  1
  Sb  Sb26  1  0.97481300  0.81392400  0.35081000  1
  Sb  Sb27  1  0.52187700  0.85615700  0.46290200  1
  Sb  Sb28  1  0.50000000  0.33232000  0.11379000  1
  Sb  Sb29  1  0.49485200  0.33412600  0.33651100  1
  Cl  Cl30  1  0.50217600  0.55249800  0.52639300  1
  O  O31  1  0.00000000  0.82836000  0.04494000  1
  O  O32  1  0.50000000  0.82836000  0.15874000  1
  O  O33  1  0.99980400  0.84474300  0.27065200  1
  O  O34  1  0.49170500  0.86903700  0.39160800  1
  O  O35  1  0.50000000  0.82836000  0.06885000  1
  O  O36  1  0.00000000  0.82836000  0.18264000  1
  O  O37  1  0.49619000  0.85114400  0.29781800  1
  O  O38  1  0.10070400  0.85449800  0.44472500  1
  O  O39  1  0.30253000  0.32836000  0.00000000  1
  O  O40  1  0.80253000  0.32836000  0.11379000  1
  O  O41  1  0.30253000  0.32836000  0.22759000  1
  O  O42  1  0.80273300  0.33424200  0.33444800  1
  O  O43  1  0.21328700  0.36547400  0.46382200  1
  O  O44  1  0.69747000  0.32836000  0.00000000  1
  O  O45  1  0.19747000  0.32836000  0.11379000  1
  O  O46  1  0.69747000  0.32836000  0.22759000  1
  O  O47  1  0.18787300  0.33667000  0.33558200  1
  O  O48  1  0.68037500  0.34936700  0.45710300  1
  O  O49  1  0.30253000  0.67164000  0.00000000  1
  O  O50  1  0.80253000  0.67164000  0.11379000  1
  O  O51  1  0.30253000  0.67164000  0.22759000  1
  O  O52  1  0.79865000  0.64612600  0.33064500  1
  O  O53  1  0.30905200  0.63456300  0.43189500  1
  O  O54  1  0.69747000  0.67164000  0.00000000  1
  O  O55  1  0.19747000  0.67164000  0.11379000  1
  O  O56  1  0.69747000  0.67164000  0.22759000  1
  O  O57  1  0.17498200  0.65343100  0.33280200  1
  O  O58  1  0.76354800  0.70450600  0.43432700  1
  O  O59  1  0.00000000  0.17164000  0.04494000  1
  O  O60  1  0.50000000  0.17164000  0.15874000  1
  O  O61  1  0.99978400  0.15531300  0.27066400  1
  O  O62  1  0.48970300  0.17971400  0.38233200  1
  O  O63  1  0.50000000  0.17164000  0.06885000  1
  O  O64  1  0.00000000  0.17164000  0.18264000  1
  O  O65  1  0.48705700  0.16272300  0.29529300  1
  O  O66  1  0.99258500  0.17622400  0.40848300  1
  O  O67  1  0.00000000  0.50000000  0.04332000  1
  O  O68  1  0.50000000  0.50000000  0.15711000  1
  O  O69  1  0.99950800  0.50002000  0.27169600  1
  O  O70  1  0.50615400  0.46289700  0.38713100  1
  O  O71  1  0.50000000  0.50000000  0.07048000  1
  O  O72  1  0.00000000  0.50000000  0.18427000  1
  O  O73  1  0.49313400  0.49443400  0.29265400  1
  O  O74  1  0.98547600  0.50744000  0.39849700  1
  O  O75  1  0.30966000  1.00000000  0.00000000  1
  O  O76  1  0.80966000  0.00000000  0.11379000  1
  O  O77  1  0.30966000  1.00000000  0.22759000  1
  O  O78  1  0.78877400  0.01880700  0.33819500  1
  O  O79  1  0.35396200  0.04343500  0.46354800  1
  O  O80  1  0.69034000  0.00000000  0.00000000  1
  O  O81  1  0.19034000  1.00000000  0.11379000  1
  O  O82  1  0.69034000  0.00000000  0.22759000  1
  O  O83  1  0.19060000  0.01140900  0.34045200  1
  O  O84  1  0.72956000  0.00770900  0.46149100  1
