# generated using pymatgen
data_MgTiMnVZnCrFeCoCuNiSb20ClO54
_symmetry_space_group_name_H-M   'P 1'
_cell_length_a   6.67290200
_cell_length_b   9.71584100
_cell_length_c   29.32721000
_cell_angle_alpha   90.31975600
_cell_angle_beta   89.79972100
_cell_angle_gamma   89.60196000
_symmetry_Int_Tables_number   1
_chemical_formula_structural   MgTiMnVZnCrFeCoCuNiSb20ClO54
_chemical_formula_sum
'Mg1 Ti1 Mn1 V1 Zn1 Cr1 Fe1 Co1 Cu1 Ni1 Sb20 Cl1 O54'
_cell_volume   1901.27938261
_cell_formula_units_Z   1
loop_
 _symmetry_equiv_pos_site_id
 _symmetry_equiv_pos_as_xyz
  1  'x, y, z'
loop_
 _atom_site_type_symbol
 _atom_site_label
 _atom_site_symmetry_multiplicity
 _atom_site_fract_x
 _atom_site_fract_y
 _atom_site_fract_z
 _atom_site_occupancy
  Mg  Mg0  1  0.00163800  0.82466100  0.66113200  1
  Ti  Ti1  1  0.46001400  0.52516000  0.55227000  1
  Mn  Mn2  1  0.95989600  0.65328300  0.56954700  1
  V  V3  1  0.00000000  0.66768000  0.77241000  1
  Zn  Zn4  1  0.00609800  0.50889500  0.66143500  1
  Cr  Cr5  1  0.00000000  0.00000000  0.00000000  1
  Fe  Fe6  1  0.00000000  0.00000000  0.77241000  1
  Co  Co7  1  0.50513000  0.66696900  0.65945100  1
  Cu  Cu8  1  0.54800500  0.84279400  0.55550700  1
  Ni  Ni9  1  0.00000000  0.33232000  0.00000000  1
  Sb  Sb10  1  0.50000000  0.00000000  0.88621000  1
  Sb  Sb11  1  0.50461000  0.99293400  0.65947000  1
  Sb  Sb12  1  0.02668700  0.98482800  0.54359800  1
  Sb  Sb13  1  0.50000000  0.50000000  0.00000000  1
  Sb  Sb14  1  0.00000000  0.50000000  0.88621000  1
  Sb  Sb15  1  0.50000000  0.50000000  0.77241000  1
  Sb  Sb16  1  0.50000000  0.33232000  0.88621000  1
  Sb  Sb17  1  1.00000000  0.33232000  0.77241000  1
  Sb  Sb18  1  0.50380600  0.33784600  0.65517700  1
  Sb  Sb19  1  0.99753000  0.33390200  0.54652200  1
  Sb  Sb20  1  0.50000000  0.83232000  0.00000000  1
  Sb  Sb21  1  0.00000000  0.83232000  0.88621000  1
  Sb  Sb22  1  0.50000000  0.83232000  0.77241000  1
  Sb  Sb23  1  0.50000000  0.16768000  0.00000000  1
  Sb  Sb24  1  1.00000000  0.16768000  0.88621000  1
  Sb  Sb25  1  0.50000000  0.16768000  0.77241000  1
  Sb  Sb26  1  0.00494600  0.16282200  0.65934000  1
  Sb  Sb27  1  0.50760000  0.17390300  0.54535600  1
  Sb  Sb28  1  1.00000000  0.66768000  0.00000000  1
  Sb  Sb29  1  0.50000000  0.66768000  0.88621000  1
  Cl  Cl30  1  0.49461400  0.46274800  0.47585900  1
  O  O31  1  0.00000000  0.17164000  0.95506000  1
  O  O32  1  0.50000000  0.17164000  0.84126000  1
  O  O33  1  0.99980400  0.15525700  0.72934800  1
  O  O34  1  0.50355000  0.15838700  0.61597900  1
  O  O35  1  0.50000000  0.17164000  0.93115000  1
  O  O36  1  0.00000000  0.17164000  0.81736000  1
  O  O37  1  0.50110700  0.16730800  0.70319100  1
  O  O38  1  0.01767400  0.15751200  0.58853300  1
  O  O39  1  0.30253000  0.67164000  1.00000000  1
  O  O40  1  0.80253000  0.67164000  0.88621000  1
  O  O41  1  0.30253000  0.67164000  0.77241000  1
  O  O42  1  0.77671600  0.66666667  0.65903700  1
  O  O43  1  0.23231000  0.62652700  0.55010700  1
  O  O44  1  0.69747000  0.67164000  0.00000000  1
  O  O45  1  0.19747000  0.67164000  0.88621000  1
  O  O46  1  0.69747000  0.67164000  0.77241000  1
  O  O47  1  0.23615100  0.66945300  0.65992400  1
  O  O48  1  0.68049200  0.66079800  0.55207600  1
  O  O49  1  0.30253000  0.32836000  1.00000000  1
  O  O50  1  0.80253000  0.32836000  0.88621000  1
  O  O51  1  0.30253000  0.32836000  0.77241000  1
  O  O52  1  0.80552700  0.31952500  0.66155100  1
  O  O53  1  0.31162400  0.34037900  0.56192800  1
  O  O54  1  0.69747000  0.32836000  0.00000000  1
  O  O55  1  0.19747000  0.32836000  0.88621000  1
  O  O56  1  0.69747000  0.32836000  0.77241000  1
  O  O57  1  0.20018400  0.32188700  0.66179100  1
  O  O58  1  0.68825900  0.33121100  0.55985600  1
  O  O59  1  1.00000000  0.82836000  0.95506000  1
  O  O60  1  0.50000000  0.82836000  0.84126000  1
  O  O61  1  0.99978400  0.84468700  0.72933600  1
  O  O62  1  0.51183000  0.83136400  0.61965300  1
  O  O63  1  0.50000000  0.82836000  0.93115000  1
  O  O64  1  0.00000000  0.82836000  0.81736000  1
  O  O65  1  0.50506400  0.83690200  0.70516100  1
  O  O66  1  0.98368800  0.83698000  0.58851900  1
  O  O67  1  0.00000000  0.50000000  0.95668000  1
  O  O68  1  0.50000000  0.50000000  0.84289000  1
  O  O69  1  0.99950800  0.49998000  0.72830400  1
  O  O70  1  0.50186400  0.50502300  0.61806300  1
  O  O71  1  0.50000000  0.50000000  0.92952000  1
  O  O72  1  0.00000000  0.50000000  0.81573000  1
  O  O73  1  0.50661000  0.48680100  0.70394100  1
  O  O74  1  0.96572200  0.48032200  0.59343500  1
  O  O75  1  0.30966000  1.00000000  1.00000000  1
  O  O76  1  0.80966000  0.00000000  0.88621000  1
  O  O77  1  0.30966000  1.00000000  0.77241000  1
  O  O78  1  0.80711300  0.00708300  0.65842400  1
  O  O79  1  0.34878700  0.98902500  0.54981000  1
  O  O80  1  0.69034000  0.00000000  0.00000000  1
  O  O81  1  0.19034000  1.00000000  0.88621000  1
  O  O82  1  0.69034000  0.00000000  0.77241000  1
  O  O83  1  0.20030900  0.00431800  0.65968200  1
  O  O84  1  0.72190900  0.02618200  0.53450900  1
