# generated using pymatgen
data_MgTiMnVZnCrFeCoCuNiSb20ClO54
_symmetry_space_group_name_H-M   'P 1'
_cell_length_a   6.65072700
_cell_length_b   9.63475300
_cell_length_c   29.31266700
_cell_angle_alpha   90.14497500
_cell_angle_beta   89.99860500
_cell_angle_gamma   89.99803600
_symmetry_Int_Tables_number   1
_chemical_formula_structural   MgTiMnVZnCrFeCoCuNiSb20ClO54
_chemical_formula_sum
'Mg1 Ti1 Mn1 V1 Zn1 Cr1 Fe1 Co1 Cu1 Ni1 Sb20 Cl1 O54'
_cell_volume   1878.29434212
_cell_formula_units_Z   1
loop_
 _symmetry_equiv_pos_site_id
 _symmetry_equiv_pos_as_xyz
  1  'x, y, z'
loop_
 _atom_site_type_symbol
 _atom_site_label
 _atom_site_symmetry_multiplicity
 _atom_site_fract_x
 _atom_site_fract_y
 _atom_site_fract_z
 _atom_site_occupancy
  Mg  Mg0  1  0.50000000  0.66768000  0.11379000  1
  Ti  Ti1  1  0.50007700  0.51504800  0.45414600  1
  Mn  Mn2  1  0.00052900  0.82639900  0.33798600  1
  V  V3  1  0.49990900  0.65779800  0.33652800  1
  Zn  Zn4  1  0.50000000  0.50000000  0.22759000  1
  Cr  Cr5  1  0.00021300  0.65089400  0.44882100  1
  Fe  Fe6  1  0.50000000  0.83232000  1.00000000  1
  Co  Co7  1  0.50000000  0.00000000  0.11379000  1
  Cu  Cu8  1  0.50000000  0.83232000  0.22759000  1
  Ni  Ni9  1  0.00082900  0.35642800  0.44366400  1
  Sb  Sb10  1  0.00000000  0.00000000  0.00000000  1
  Sb  Sb11  1  0.00000000  0.00000000  0.22759000  1
  Sb  Sb12  1  0.50108400  0.99168200  0.34560800  1
  Sb  Sb13  1  0.00025000  0.99155200  0.43383500  1
  Sb  Sb14  1  0.50000000  0.50000000  1.00000000  1
  Sb  Sb15  1  0.00000000  0.50000000  0.11379000  1
  Sb  Sb16  1  0.00018700  0.51344100  0.34006500  1
  Sb  Sb17  1  0.00000000  0.66768000  1.00000000  1
  Sb  Sb18  1  0.00000000  0.66768000  0.22759000  1
  Sb  Sb19  1  0.50000000  0.16768000  0.00000000  1
  Sb  Sb20  1  0.00000000  0.16768000  0.11379000  1
  Sb  Sb21  1  0.50000000  0.16768000  0.22759000  1
  Sb  Sb22  1  0.00134900  0.16860600  0.34096900  1
  Sb  Sb23  1  0.50144800  0.20481100  0.46365700  1
  Sb  Sb24  1  0.00000000  0.83232000  0.11379000  1
  Sb  Sb25  1  0.49987700  0.83064100  0.46136900  1
  Sb  Sb26  1  0.00000000  0.33232000  1.00000000  1
  Sb  Sb27  1  0.50000000  0.33232000  0.11379000  1
  Sb  Sb28  1  0.00000000  0.33232000  0.22759000  1
  Sb  Sb29  1  0.50057900  0.34040300  0.35233200  1
  Cl  Cl30  1  0.50135500  0.45021300  0.53129500  1
  O  O31  1  0.00000000  0.82836000  0.04494000  1
  O  O32  1  0.50000000  0.82836000  0.15874000  1
  O  O33  1  0.99980400  0.84474300  0.27065200  1
  O  O34  1  0.50127500  0.83661300  0.39165600  1
  O  O35  1  0.50000000  0.82836000  0.06885000  1
  O  O36  1  0.00000000  0.82836000  0.18264000  1
  O  O37  1  0.50112900  0.83130800  0.30355200  1
  O  O38  1  0.00220000  0.80399300  0.40744800  1
  O  O39  1  0.30253000  0.32836000  1.00000000  1
  O  O40  1  0.80253000  0.32836000  0.11379000  1
  O  O41  1  0.30253000  0.32836000  0.22759000  1
  O  O42  1  0.81777100  0.33740000  0.33659400  1
  O  O43  1  0.30237000  0.35677800  0.44391200  1
  O  O44  1  0.69747000  0.32836000  1.00000000  1
  O  O45  1  0.19747000  0.32836000  0.11379000  1
  O  O46  1  0.69747000  0.32836000  0.22759000  1
  O  O47  1  0.18396700  0.33761800  0.33620500  1
  O  O48  1  0.69940600  0.35702400  0.44366000  1
  O  O49  1  0.30253000  0.67164000  1.00000000  1
  O  O50  1  0.80253000  0.67164000  0.11379000  1
  O  O51  1  0.30253000  0.67164000  0.22759000  1
  O  O52  1  0.79516400  0.66511100  0.33693100  1
  O  O53  1  0.29092000  0.65225300  0.45988700  1
  O  O54  1  0.69747000  0.67164000  1.00000000  1
  O  O55  1  0.19747000  0.67164000  0.11379000  1
  O  O56  1  0.69747000  0.67164000  0.22759000  1
  O  O57  1  0.20503000  0.66568100  0.33634400  1
  O  O58  1  0.71000200  0.65216800  0.45946800  1
  O  O59  1  0.00000000  0.17164000  0.04494000  1
  O  O60  1  0.50000000  0.17164000  0.15874000  1
  O  O61  1  0.99978400  0.15531300  0.27066400  1
  O  O62  1  0.50027100  0.14467600  0.39346000  1
  O  O63  1  0.50000000  0.17164000  0.06885000  1
  O  O64  1  0.00000000  0.17164000  0.18264000  1
  O  O65  1  0.50151300  0.15793200  0.30098100  1
  O  O66  1  0.00126000  0.18391200  0.40958800  1
  O  O67  1  0.00000000  0.50000000  0.04332000  1
  O  O68  1  0.50000000  0.50000000  0.15711000  1
  O  O69  1  0.99950800  0.50002000  0.27169600  1
  O  O70  1  0.49846500  0.55153800  0.38620100  1
  O  O71  1  0.50000000  0.50000000  0.07048000  1
  O  O72  1  0.00000000  0.50000000  0.18427000  1
  O  O73  1  0.50054700  0.51597700  0.30053400  1
  O  O74  1  0.00307500  0.51218800  0.40691300  1
  O  O75  1  0.30966000  1.00000000  1.00000000  1
  O  O76  1  0.80966000  0.00000000  0.11379000  1
  O  O77  1  0.30966000  1.00000000  0.22759000  1
  O  O78  1  0.80888800  0.00365300  0.34750400  1
  O  O79  1  0.24981600  0.99484100  0.46653900  1
  O  O80  1  0.69034000  0.00000000  0.00000000  1
  O  O81  1  0.19034000  1.00000000  0.11379000  1
  O  O82  1  0.69034000  0.00000000  0.22759000  1
  O  O83  1  0.19342900  0.00334800  0.34704200  1
  O  O84  1  0.75100800  0.99461200  0.46657900  1
