# generated using pymatgen
data_MgTiMnVZnCrFeCoCuNiSb20ClO54
_symmetry_space_group_name_H-M   'P 1'
_cell_length_a   6.69363100
_cell_length_b   9.49599000
_cell_length_c   29.27636500
_cell_angle_alpha   90.04669600
_cell_angle_beta   89.98403500
_cell_angle_gamma   89.82969400
_symmetry_Int_Tables_number   1
_chemical_formula_structural   MgTiMnVZnCrFeCoCuNiSb20ClO54
_chemical_formula_sum
'Mg1 Ti1 Mn1 V1 Zn1 Cr1 Fe1 Co1 Cu1 Ni1 Sb20 Cl1 O54'
_cell_volume   1860.87451864
_cell_formula_units_Z   1
loop_
 _symmetry_equiv_pos_site_id
 _symmetry_equiv_pos_as_xyz
  1  'x, y, z'
loop_
 _atom_site_type_symbol
 _atom_site_label
 _atom_site_symmetry_multiplicity
 _atom_site_fract_x
 _atom_site_fract_y
 _atom_site_fract_z
 _atom_site_occupancy
  Mg  Mg0  1  0.00000000  0.50000000  0.11379000  1
  Ti  Ti1  1  0.50172100  0.48258900  0.45672700  1
  Mn  Mn2  1  1.00000000  0.00000000  0.22759000  1
  V  V3  1  0.00000000  0.66768000  0.22759000  1
  Zn  Zn4  1  0.00198000  0.16369000  0.33581300  1
  Cr  Cr5  1  0.50000000  1.00000000  0.11379000  1
  Fe  Fe6  1  0.00515000  0.83470800  0.33365800  1
  Co  Co7  1  0.51577800  0.16816900  0.44314700  1
  Cu  Cu8  1  0.49816300  0.99504900  0.34189200  1
  Ni  Ni9  1  0.50000000  0.83232000  0.22759000  1
  Sb  Sb10  1  0.00000000  0.00000000  0.00000000  1
  Sb  Sb11  1  0.98689100  0.99284500  0.41557900  1
  Sb  Sb12  1  0.50000000  0.50000000  0.00000000  1
  Sb  Sb13  1  0.50000000  0.50000000  0.22759000  1
  Sb  Sb14  1  0.00007700  0.49876700  0.34238500  1
  Sb  Sb15  1  0.00000000  0.33232000  0.00000000  1
  Sb  Sb16  1  0.50000000  0.33232000  0.11379000  1
  Sb  Sb17  1  0.00000000  0.33232000  0.22759000  1
  Sb  Sb18  1  0.50061800  0.33045600  0.34183000  1
  Sb  Sb19  1  0.00903500  0.32189300  0.45846000  1
  Sb  Sb20  1  0.50000000  0.83232000  0.00000000  1
  Sb  Sb21  1  0.00000000  0.83232000  0.11379000  1
  Sb  Sb22  1  0.48283500  0.82507400  0.45707800  1
  Sb  Sb23  1  0.50000000  0.16768000  0.00000000  1
  Sb  Sb24  1  1.00000000  0.16768000  0.11379000  1
  Sb  Sb25  1  0.50000000  0.16768000  0.22759000  1
  Sb  Sb26  1  0.00000000  0.66768000  0.00000000  1
  Sb  Sb27  1  0.50000000  0.66768000  0.11379000  1
  Sb  Sb28  1  0.50089500  0.67500100  0.34147100  1
  Sb  Sb29  1  0.99417500  0.65550900  0.46122100  1
  Cl  Cl30  1  0.48632200  0.48415100  0.53449700  1
  O  O31  1  0.00000000  0.17164000  0.04494000  1
  O  O32  1  0.50000000  0.17164000  0.15874000  1
  O  O33  1  0.00019600  0.15525700  0.27065200  1
  O  O34  1  0.50017300  0.16025500  0.38082800  1
  O  O35  1  0.50000000  0.17164000  0.06885000  1
  O  O36  1  0.00000000  0.17164000  0.18264000  1
  O  O37  1  0.50008200  0.17638300  0.29523200  1
  O  O38  1  0.99897200  0.19652900  0.40494900  1
  O  O39  1  0.69747000  0.67164000  0.00000000  1
  O  O40  1  0.19747000  0.67164000  0.11379000  1
  O  O41  1  0.69747000  0.67164000  0.22759000  1
  O  O42  1  0.19360600  0.66028700  0.33860000  1
  O  O43  1  0.68464100  0.63699500  0.45209100  1
  O  O44  1  0.30253000  0.67164000  0.00000000  1
  O  O45  1  0.80253000  0.67164000  0.11379000  1
  O  O46  1  0.30253000  0.67164000  0.22759000  1
  O  O47  1  0.80678400  0.66011300  0.33776200  1
  O  O48  1  0.30628100  0.64058700  0.45092100  1
  O  O49  1  0.69747000  0.32836000  0.00000000  1
  O  O50  1  0.19747000  0.32836000  0.11379000  1
  O  O51  1  0.69747000  0.32836000  0.22759000  1
  O  O52  1  0.19826100  0.34117400  0.33713700  1
  O  O53  1  0.69149800  0.33404000  0.44986800  1
  O  O54  1  0.30253000  0.32836000  0.00000000  1
  O  O55  1  0.80253000  0.32836000  0.11379000  1
  O  O56  1  0.30253000  0.32836000  0.22759000  1
  O  O57  1  0.80288500  0.34187200  0.33678700  1
  O  O58  1  0.31971000  0.32401700  0.44920200  1
  O  O59  1  0.00000000  0.82836000  0.04494000  1
  O  O60  1  0.50000000  0.82836000  0.15874000  1
  O  O61  1  0.00021600  0.84468700  0.27066400  1
  O  O62  1  0.50087900  0.82242700  0.38871600  1
  O  O63  1  0.50000000  0.82836000  0.06885000  1
  O  O64  1  0.00000000  0.82836000  0.18264000  1
  O  O65  1  0.49940400  0.83362800  0.29836400  1
  O  O66  1  0.98507500  0.78733300  0.40927600  1
  O  O67  1  0.00000000  0.50000000  0.04332000  1
  O  O68  1  0.50000000  0.50000000  0.15711000  1
  O  O69  1  0.00049200  0.49998000  0.27169600  1
  O  O70  1  0.49986700  0.50022500  0.38267300  1
  O  O71  1  0.50000000  0.50000000  0.07048000  1
  O  O72  1  0.00000000  0.50000000  0.18427000  1
  O  O73  1  0.49940200  0.49874300  0.29615900  1
  O  O74  1  0.00271300  0.49232100  0.41304100  1
  O  O75  1  0.69034000  0.00000000  0.00000000  1
  O  O76  1  0.19034000  0.00000000  0.11379000  1
  O  O77  1  0.69034000  0.00000000  0.22759000  1
  O  O78  1  0.18046500  0.97953500  0.35355500  1
  O  O79  1  0.73165100  0.01023000  0.45156200  1
  O  O80  1  0.30966000  1.00000000  0.00000000  1
  O  O81  1  0.80966000  0.00000000  0.11379000  1
  O  O82  1  0.30966000  1.00000000  0.22759000  1
  O  O83  1  0.81924000  0.98296200  0.35419800  1
  O  O84  1  0.24130400  0.98977400  0.45157400  1
