# generated using pymatgen
data_MgTiMnVZnCrFeCoCuNiSb20ClO54
_symmetry_space_group_name_H-M   'P 1'
_cell_length_a   6.69420500
_cell_length_b   9.57404800
_cell_length_c   28.98491200
_cell_angle_alpha   89.97099300
_cell_angle_beta   89.95734300
_cell_angle_gamma   89.99375200
_symmetry_Int_Tables_number   1
_chemical_formula_structural   MgTiMnVZnCrFeCoCuNiSb20ClO54
_chemical_formula_sum
'Mg1 Ti1 Mn1 V1 Zn1 Cr1 Fe1 Co1 Cu1 Ni1 Sb20 Cl1 O54'
_cell_volume   1857.66079631
_cell_formula_units_Z   1
loop_
 _symmetry_equiv_pos_site_id
 _symmetry_equiv_pos_as_xyz
  1  'x, y, z'
loop_
 _atom_site_type_symbol
 _atom_site_label
 _atom_site_symmetry_multiplicity
 _atom_site_fract_x
 _atom_site_fract_y
 _atom_site_fract_z
 _atom_site_occupancy
  Mg  Mg0  1  0.50000000  0.66768000  0.11379000  1
  Ti  Ti1  1  0.49904600  0.49789700  0.45760500  1
  Mn  Mn2  1  0.99994000  0.33871900  0.44354700  1
  V  V3  1  0.50000000  0.50000000  1.00000000  1
  Zn  Zn4  1  0.00000000  0.50000000  0.11379000  1
  Cr  Cr5  1  0.00000000  0.00000000  0.00000000  1
  Fe  Fe6  1  0.99991500  0.84416200  0.33956900  1
  Co  Co7  1  0.00000000  1.00000000  0.22759000  1
  Cu  Cu8  1  0.00044500  0.99266600  0.43742800  1
  Ni  Ni9  1  0.49968200  0.00000500  0.34237700  1
  Sb  Sb10  1  0.50000000  1.00000000  0.11379000  1
  Sb  Sb11  1  0.50000000  0.50000000  0.22759000  1
  Sb  Sb12  1  0.00047200  0.50933200  0.34389600  1
  Sb  Sb13  1  0.00000000  0.66768000  0.00000000  1
  Sb  Sb14  1  0.00000000  0.66768000  0.22759000  1
  Sb  Sb15  1  0.50010900  0.67239900  0.34461800  1
  Sb  Sb16  1  0.99841700  0.67873500  0.45755800  1
  Sb  Sb17  1  0.50000000  0.16768000  1.00000000  1
  Sb  Sb18  1  0.00000000  0.16768000  0.11379000  1
  Sb  Sb19  1  0.50000000  0.16768000  0.22759000  1
  Sb  Sb20  1  0.99964900  0.15137300  0.34158200  1
  Sb  Sb21  1  0.50070500  0.16501600  0.45850000  1
  Sb  Sb22  1  0.50000000  0.83232000  1.00000000  1
  Sb  Sb23  1  0.00000000  0.83232000  0.11379000  1
  Sb  Sb24  1  0.50000000  0.83232000  0.22759000  1
  Sb  Sb25  1  0.50009100  0.83375000  0.45855500  1
  Sb  Sb26  1  0.00000000  0.33232000  0.00000000  1
  Sb  Sb27  1  0.50000000  0.33232000  0.11379000  1
  Sb  Sb28  1  0.00000000  0.33232000  0.22759000  1
  Sb  Sb29  1  0.50000700  0.32787100  0.34424400  1
  Cl  Cl30  1  0.50483300  0.49838800  0.53594400  1
  O  O31  1  0.00000000  0.82836000  0.04494000  1
  O  O32  1  0.50000000  0.82836000  0.15874000  1
  O  O33  1  0.99980400  0.84474300  0.27065200  1
  O  O34  1  0.49865000  0.83198700  0.38685600  1
  O  O35  1  0.50000000  0.82836000  0.06885000  1
  O  O36  1  0.00000000  0.82836000  0.18264000  1
  O  O37  1  0.50094400  0.82760500  0.29702000  1
  O  O38  1  0.00011400  0.81223000  0.40636400  1
  O  O39  1  0.30253000  0.32836000  1.00000000  1
  O  O40  1  0.80253000  0.32836000  0.11379000  1
  O  O41  1  0.30253000  0.32836000  0.22759000  1
  O  O42  1  0.81005300  0.33629400  0.33979400  1
  O  O43  1  0.27957300  0.35167200  0.45315400  1
  O  O44  1  0.69747000  0.32836000  1.00000000  1
  O  O45  1  0.19747000  0.32836000  0.11379000  1
  O  O46  1  0.69747000  0.32836000  0.22759000  1
  O  O47  1  0.18995500  0.33607900  0.33951200  1
  O  O48  1  0.71979000  0.35119600  0.45273900  1
  O  O49  1  0.30253000  0.67164000  1.00000000  1
  O  O50  1  0.80253000  0.67164000  0.11379000  1
  O  O51  1  0.30253000  0.67164000  0.22759000  1
  O  O52  1  0.80134100  0.66335300  0.33691000  1
  O  O53  1  0.31192500  0.64693000  0.44974900  1
  O  O54  1  0.69747000  0.67164000  1.00000000  1
  O  O55  1  0.19747000  0.67164000  0.11379000  1
  O  O56  1  0.69747000  0.67164000  0.22759000  1
  O  O57  1  0.19887800  0.66365400  0.33660000  1
  O  O58  1  0.68670700  0.64541500  0.44811700  1
  O  O59  1  0.00000000  0.17164000  0.04494000  1
  O  O60  1  0.50000000  0.17164000  0.15874000  1
  O  O61  1  0.99978400  0.15531300  0.27066400  1
  O  O62  1  0.49943700  0.17074400  0.38725700  1
  O  O63  1  0.50000000  0.17164000  0.06885000  1
  O  O64  1  0.00000000  0.17164000  0.18264000  1
  O  O65  1  0.50034600  0.17413500  0.29716200  1
  O  O66  1  0.00164400  0.17614800  0.41066400  1
  O  O67  1  0.00000000  0.50000000  0.04332000  1
  O  O68  1  0.50000000  0.50000000  0.15711000  1
  O  O69  1  0.99950800  0.50002000  0.27169600  1
  O  O70  1  0.49724700  0.49611500  0.38471000  1
  O  O71  1  0.50000000  0.50000000  0.07048000  1
  O  O72  1  0.00000000  0.50000000  0.18427000  1
  O  O73  1  0.50158600  0.49651600  0.29838800  1
  O  O74  1  0.00148700  0.51376200  0.41195900  1
  O  O75  1  0.30966000  0.00000000  1.00000000  1
  O  O76  1  0.80966000  1.00000000  0.11379000  1
  O  O77  1  0.30966000  1.00000000  0.22759000  1
  O  O78  1  0.80069400  0.00021300  0.34170800  1
  O  O79  1  0.28736200  0.99954300  0.45018200  1
  O  O80  1  0.69034000  0.00000000  1.00000000  1
  O  O81  1  0.19034000  1.00000000  0.11379000  1
  O  O82  1  0.69034000  1.00000000  0.22759000  1
  O  O83  1  0.19879900  0.00031200  0.34155000  1
  O  O84  1  0.71325600  0.99997100  0.45009300  1
