# generated using pymatgen
data_MgTiMnVZnCrFeCoCuNiSb20ClO54
_symmetry_space_group_name_H-M   'P 1'
_cell_length_a   6.70799000
_cell_length_b   9.53358600
_cell_length_c   28.94250100
_cell_angle_alpha   89.85177300
_cell_angle_beta   89.79495100
_cell_angle_gamma   89.91182800
_symmetry_Int_Tables_number   1
_chemical_formula_structural   MgTiMnVZnCrFeCoCuNiSb20ClO54
_chemical_formula_sum
'Mg1 Ti1 Mn1 V1 Zn1 Cr1 Fe1 Co1 Cu1 Ni1 Sb20 Cl1 O54'
_cell_volume   1850.88744486
_cell_formula_units_Z   1
loop_
 _symmetry_equiv_pos_site_id
 _symmetry_equiv_pos_as_xyz
  1  'x, y, z'
loop_
 _atom_site_type_symbol
 _atom_site_label
 _atom_site_symmetry_multiplicity
 _atom_site_fract_x
 _atom_site_fract_y
 _atom_site_fract_z
 _atom_site_occupancy
  Mg  Mg0  1  0.50000000  0.16768000  0.77241000  1
  Ti  Ti1  1  0.49680500  0.49197300  0.54487300  1
  Mn  Mn2  1  0.50000000  0.83232000  0.77241000  1
  V  V3  1  0.00000000  0.50000000  0.88621000  1
  Zn  Zn4  1  0.00000000  0.33232000  0.77241000  1
  Cr  Cr5  1  0.99420200  0.02169800  0.55045200  1
  Fe  Fe6  1  0.50000000  0.16768000  0.00000000  1
  Co  Co7  1  0.00000000  0.00000000  0.00000000  1
  Cu  Cu8  1  0.00166900  0.34107200  0.55132600  1
  Ni  Ni9  1  0.50000000  0.33232000  0.88621000  1
  Sb  Sb10  1  0.50000000  1.00000000  0.88621000  1
  Sb  Sb11  1  0.00000000  0.00000000  0.77241000  1
  Sb  Sb12  1  0.50563800  0.00093600  0.65488700  1
  Sb  Sb13  1  0.50000000  0.50000000  1.00000000  1
  Sb  Sb14  1  0.50000000  0.50000000  0.77241000  1
  Sb  Sb15  1  0.99622500  0.50157300  0.66034800  1
  Sb  Sb16  1  0.00000000  0.66768000  1.00000000  1
  Sb  Sb17  1  0.50000000  0.66768000  0.88621000  1
  Sb  Sb18  1  0.00000000  0.66768000  0.77241000  1
  Sb  Sb19  1  0.50474600  0.66825100  0.65509400  1
  Sb  Sb20  1  0.00236300  0.64864600  0.53706500  1
  Sb  Sb21  1  0.00000000  0.16768000  0.88621000  1
  Sb  Sb22  1  0.99672000  0.16852600  0.66114200  1
  Sb  Sb23  1  0.51303100  0.17831800  0.53152900  1
  Sb  Sb24  1  0.50000000  0.83232000  1.00000000  1
  Sb  Sb25  1  0.00000000  0.83232000  0.88621000  1
  Sb  Sb26  1  0.01706300  0.83346300  0.65070700  1
  Sb  Sb27  1  0.49361900  0.81201200  0.53362900  1
  Sb  Sb28  1  0.00000000  0.33232000  1.00000000  1
  Sb  Sb29  1  0.49763000  0.32753700  0.65732600  1
  Cl  Cl30  1  0.46931600  0.57952100  0.46680800  1
  O  O31  1  0.00000000  0.82836000  0.95506000  1
  O  O32  1  0.50000000  0.82836000  0.84126000  1
  O  O33  1  0.00019600  0.84474300  0.72934800  1
  O  O34  1  0.50369500  0.83816200  0.60929700  1
  O  O35  1  0.50000000  0.82836000  0.93115000  1
  O  O36  1  0.00000000  0.82836000  0.81736000  1
  O  O37  1  0.49475200  0.83368300  0.69774500  1
  O  O38  1  0.98794400  0.84176000  0.57338800  1
  O  O39  1  0.69747000  0.32836000  1.00000000  1
  O  O40  1  0.19747000  0.32836000  0.88621000  1
  O  O41  1  0.69747000  0.32836000  0.77241000  1
  O  O42  1  0.17869400  0.33506500  0.65930300  1
  O  O43  1  0.69971700  0.35246600  0.53912500  1
  O  O44  1  0.30253000  0.32836000  1.00000000  1
  O  O45  1  0.80253000  0.32836000  0.88621000  1
  O  O46  1  0.30253000  0.32836000  0.77241000  1
  O  O47  1  0.81201000  0.33477200  0.65979500  1
  O  O48  1  0.29927600  0.35931400  0.54236400  1
  O  O49  1  0.69747000  0.67164000  1.00000000  1
  O  O50  1  0.19747000  0.67164000  0.88621000  1
  O  O51  1  0.69747000  0.67164000  0.77241000  1
  O  O52  1  0.21160500  0.64739400  0.66225200  1
  O  O53  1  0.69267200  0.66350500  0.54824600  1
  O  O54  1  0.30253000  0.67164000  1.00000000  1
  O  O55  1  0.80253000  0.67164000  0.88621000  1
  O  O56  1  0.30253000  0.67164000  0.77241000  1
  O  O57  1  0.80183800  0.66489500  0.66186000  1
  O  O58  1  0.30545100  0.66299600  0.55635200  1
  O  O59  1  0.00000000  0.17164000  0.95506000  1
  O  O60  1  0.50000000  0.17164000  0.84126000  1
  O  O61  1  0.00021600  0.15531300  0.72933600  1
  O  O62  1  0.51155200  0.13889900  0.60169200  1
  O  O63  1  0.50000000  0.17164000  0.93115000  1
  O  O64  1  0.00000000  0.17164000  0.81736000  1
  O  O65  1  0.51461300  0.15069300  0.69982000  1
  O  O66  1  0.99387100  0.16508500  0.59108500  1
  O  O67  1  0.00000000  0.50000000  0.95668000  1
  O  O68  1  0.50000000  0.50000000  0.84289000  1
  O  O69  1  0.00049200  0.50002000  0.72830400  1
  O  O70  1  0.51958000  0.51198700  0.61144100  1
  O  O71  1  0.50000000  0.50000000  0.92952000  1
  O  O72  1  0.00000000  0.50000000  0.81573000  1
  O  O73  1  0.51216800  0.51022000  0.70150700  1
  O  O74  1  0.99084800  0.51786700  0.59243400  1
  O  O75  1  0.69034000  0.00000000  1.00000000  1
  O  O76  1  0.19034000  1.00000000  0.88621000  1
  O  O77  1  0.69034000  0.00000000  0.77241000  1
  O  O78  1  0.20742000  0.01919900  0.65452600  1
  O  O79  1  0.76519700  0.02892900  0.52330900  1
  O  O80  1  0.30966000  1.00000000  0.00000000  1
  O  O81  1  0.80966000  0.00000000  0.88621000  1
  O  O82  1  0.30966000  1.00000000  0.77241000  1
  O  O83  1  0.80660500  0.00362100  0.65555800  1
  O  O84  1  0.20996300  0.02275600  0.52169100  1
