# generated using pymatgen
data_MgTiMnVZnCrFeCoCuNiSb20ClO54
_symmetry_space_group_name_H-M   'P 1'
_cell_length_a   6.68396100
_cell_length_b   9.60580800
_cell_length_c   28.89506900
_cell_angle_alpha   89.84731600
_cell_angle_beta   89.90177400
_cell_angle_gamma   89.95728600
_symmetry_Int_Tables_number   1
_chemical_formula_structural   MgTiMnVZnCrFeCoCuNiSb20ClO54
_chemical_formula_sum
'Mg1 Ti1 Mn1 V1 Zn1 Cr1 Fe1 Co1 Cu1 Ni1 Sb20 Cl1 O54'
_cell_volume   1855.19363389
_cell_formula_units_Z   1
loop_
 _symmetry_equiv_pos_site_id
 _symmetry_equiv_pos_as_xyz
  1  'x, y, z'
loop_
 _atom_site_type_symbol
 _atom_site_label
 _atom_site_symmetry_multiplicity
 _atom_site_fract_x
 _atom_site_fract_y
 _atom_site_fract_z
 _atom_site_occupancy
  Mg  Mg0  1  0.49961900  0.66744100  0.65496300  1
  Ti  Ti1  1  0.51153400  0.51542800  0.54310600  1
  Mn  Mn2  1  0.50000000  1.00000000  0.88621000  1
  V  V3  1  0.50054000  0.97641300  0.65771300  1
  Zn  Zn4  1  0.49570500  0.83772900  0.54663500  1
  Cr  Cr5  1  1.00000000  0.50000000  0.88621000  1
  Fe  Fe6  1  1.00000000  0.16768000  0.88621000  1
  Co  Co7  1  1.00000000  0.66768000  0.00000000  1
  Cu  Cu8  1  0.99502600  0.32828900  0.54426300  1
  Ni  Ni9  1  1.00000000  0.83232000  0.88621000  1
  Sb  Sb10  1  0.00000000  0.00000000  0.00000000  1
  Sb  Sb11  1  1.00000000  0.00000000  0.77241000  1
  Sb  Sb12  1  0.99519500  0.98530900  0.53180200  1
  Sb  Sb13  1  0.50000000  0.50000000  0.00000000  1
  Sb  Sb14  1  0.50000000  0.50000000  0.77241000  1
  Sb  Sb15  1  0.99980800  0.50769500  0.65550900  1
  Sb  Sb16  1  0.50000000  0.66768000  0.88621000  1
  Sb  Sb17  1  1.00000000  0.66768000  0.77241000  1
  Sb  Sb18  1  0.01093200  0.64078400  0.53634800  1
  Sb  Sb19  1  0.50000000  0.16768000  0.00000000  1
  Sb  Sb20  1  0.50000000  0.16768000  0.77241000  1
  Sb  Sb21  1  0.00126300  0.15698800  0.64745300  1
  Sb  Sb22  1  0.49373300  0.17656300  0.54637000  1
  Sb  Sb23  1  0.50000000  0.83232000  0.00000000  1
  Sb  Sb24  1  0.50000000  0.83232000  0.77241000  1
  Sb  Sb25  1  0.99923100  0.82964400  0.65413100  1
  Sb  Sb26  1  0.00000000  0.33232000  0.00000000  1
  Sb  Sb27  1  0.50000000  0.33232000  0.88621000  1
  Sb  Sb28  1  1.00000000  0.33232000  0.77241000  1
  Sb  Sb29  1  0.50062500  0.34038600  0.65678800  1
  Cl  Cl30  1  0.48198300  0.50697700  0.46383700  1
  O  O31  1  1.00000000  0.82836000  0.95506000  1
  O  O32  1  0.50000000  0.82836000  0.84126000  1
  O  O33  1  0.00019600  0.84474300  0.72934800  1
  O  O34  1  0.50516700  0.85378900  0.61517200  1
  O  O35  1  0.50000000  0.82836000  0.93115000  1
  O  O36  1  1.00000000  0.82836000  0.81736000  1
  O  O37  1  0.49962500  0.83496200  0.70405200  1
  O  O38  1  0.99684300  0.82453500  0.58302600  1
  O  O39  1  0.69747000  0.32836000  0.00000000  1
  O  O40  1  0.19747000  0.32836000  0.88621000  1
  O  O41  1  0.69747000  0.32836000  0.77241000  1
  O  O42  1  0.20004900  0.35265400  0.66105200  1
  O  O43  1  0.69228300  0.33325300  0.54056800  1
  O  O44  1  0.30253000  0.32836000  0.00000000  1
  O  O45  1  0.80253000  0.32836000  0.88621000  1
  O  O46  1  0.30253000  0.32836000  0.77241000  1
  O  O47  1  0.80175600  0.35039700  0.66126100  1
  O  O48  1  0.29415800  0.32754200  0.54136100  1
  O  O49  1  0.69747000  0.67164000  0.00000000  1
  O  O50  1  0.19747000  0.67164000  0.88621000  1
  O  O51  1  0.69747000  0.67164000  0.77241000  1
  O  O52  1  0.19229400  0.66982200  0.65998900  1
  O  O53  1  0.69151600  0.65917600  0.54546700  1
  O  O54  1  0.30253000  0.67164000  0.00000000  1
  O  O55  1  0.80253000  0.67164000  0.88621000  1
  O  O56  1  0.30253000  0.67164000  0.77241000  1
  O  O57  1  0.80691300  0.66976000  0.66044200  1
  O  O58  1  0.31406900  0.65937200  0.54904500  1
  O  O59  1  1.00000000  0.17164000  0.95506000  1
  O  O60  1  0.50000000  0.17164000  0.84126000  1
  O  O61  1  0.00021600  0.15531300  0.72933600  1
  O  O62  1  0.50092800  0.16514800  0.61604000  1
  O  O63  1  0.50000000  0.17164000  0.93115000  1
  O  O64  1  1.00000000  0.17164000  0.81736000  1
  O  O65  1  0.49978200  0.16910400  0.70072300  1
  O  O66  1  0.98739800  0.13762000  0.57656000  1
  O  O67  1  1.00000000  0.50000000  0.95668000  1
  O  O68  1  0.50000000  0.50000000  0.84289000  1
  O  O69  1  0.00049200  0.50002000  0.72830400  1
  O  O70  1  0.50353000  0.49177200  0.61175200  1
  O  O71  1  0.50000000  0.50000000  0.92952000  1
  O  O72  1  1.00000000  0.50000000  0.81573000  1
  O  O73  1  0.50123400  0.49865500  0.70245900  1
  O  O74  1  0.99708000  0.50218300  0.58830400  1
  O  O75  1  0.69034000  0.00000000  1.00000000  1
  O  O76  1  0.19034000  1.00000000  0.88621000  1
  O  O77  1  0.69034000  0.00000000  0.77241000  1
  O  O78  1  0.20348100  0.98206200  0.65750100  1
  O  O79  1  0.67894800  0.01449800  0.53280600  1
  O  O80  1  0.30966000  1.00000000  0.00000000  1
  O  O81  1  0.80966000  0.00000000  0.88621000  1
  O  O82  1  0.30966000  1.00000000  0.77241000  1
  O  O83  1  0.79840700  0.98432400  0.65845700  1
  O  O84  1  0.30843500  0.01128300  0.53588400  1
