# generated using pymatgen
data_MgTiMnVZnCrFeCoCuNiSb20ClO54
_symmetry_space_group_name_H-M   'P 1'
_cell_length_a   6.63280500
_cell_length_b   9.59603200
_cell_length_c   29.27940600
_cell_angle_alpha   90.03155300
_cell_angle_beta   89.99355200
_cell_angle_gamma   89.97297500
_symmetry_Int_Tables_number   1
_chemical_formula_structural   MgTiMnVZnCrFeCoCuNiSb20ClO54
_chemical_formula_sum
'Mg1 Ti1 Mn1 V1 Zn1 Cr1 Fe1 Co1 Cu1 Ni1 Sb20 Cl1 O54'
_cell_volume   1863.59296337
_cell_formula_units_Z   1
loop_
 _symmetry_equiv_pos_site_id
 _symmetry_equiv_pos_as_xyz
  1  'x, y, z'
loop_
 _atom_site_type_symbol
 _atom_site_label
 _atom_site_symmetry_multiplicity
 _atom_site_fract_x
 _atom_site_fract_y
 _atom_site_fract_z
 _atom_site_occupancy
  Mg  Mg0  1  0.00097500  0.17158800  0.66135700  1
  Ti  Ti1  1  0.50112400  0.49333000  0.53979300  1
  Mn  Mn2  1  0.50000000  0.50000000  1.00000000  1
  V  V3  1  0.50000000  0.83232000  1.00000000  1
  Zn  Zn4  1  1.00000000  0.33232000  1.00000000  1
  Cr  Cr5  1  0.00000000  0.66768000  0.77241000  1
  Fe  Fe6  1  0.50000000  0.00000000  0.88621000  1
  Co  Co7  1  0.00337400  0.33491900  0.55026600  1
  Cu  Cu8  1  0.99982700  0.82422600  0.66396700  1
  Ni  Ni9  1  0.50000000  0.16768000  1.00000000  1
  Sb  Sb10  1  0.00000000  0.00000000  0.00000000  1
  Sb  Sb11  1  1.00000000  0.00000000  0.77241000  1
  Sb  Sb12  1  0.50053300  0.99856600  0.64845300  1
  Sb  Sb13  1  0.00123300  0.99611800  0.58220200  1
  Sb  Sb14  1  0.00000000  0.50000000  0.88621000  1
  Sb  Sb15  1  0.50000000  0.50000000  0.77241000  1
  Sb  Sb16  1  0.00063600  0.50005500  0.65807100  1
  Sb  Sb17  1  0.50000000  0.33232000  0.88621000  1
  Sb  Sb18  1  1.00000000  0.33232000  0.77241000  1
  Sb  Sb19  1  0.50057900  0.33316700  0.65515100  1
  Sb  Sb20  1  0.00000000  0.83232000  0.88621000  1
  Sb  Sb21  1  0.50000000  0.83232000  0.77241000  1
  Sb  Sb22  1  0.49797700  0.82055500  0.53497200  1
  Sb  Sb23  1  0.00000000  0.16768000  0.88621000  1
  Sb  Sb24  1  0.50000000  0.16768000  0.77241000  1
  Sb  Sb25  1  0.50556100  0.17840200  0.53424800  1
  Sb  Sb26  1  0.00000000  0.66768000  1.00000000  1
  Sb  Sb27  1  0.50000000  0.66768000  0.88621000  1
  Sb  Sb28  1  0.50045300  0.66200400  0.65362300  1
  Sb  Sb29  1  0.99817300  0.65256800  0.54227400  1
  Cl  Cl30  1  0.50908900  0.53614300  0.46270600  1
  O  O31  1  0.00000000  0.17164000  0.95506000  1
  O  O32  1  0.50000000  0.17164000  0.84126000  1
  O  O33  1  0.99980400  0.15525700  0.72934800  1
  O  O34  1  0.50007700  0.17948300  0.60617800  1
  O  O35  1  0.50000000  0.17164000  0.93115000  1
  O  O36  1  0.00000000  0.17164000  0.81736000  1
  O  O37  1  0.50094700  0.16215600  0.69791900  1
  O  O38  1  0.00410800  0.19460500  0.59290600  1
  O  O39  1  0.30253000  0.67164000  1.00000000  1
  O  O40  1  0.80253000  0.67164000  0.88621000  1
  O  O41  1  0.30253000  0.67164000  0.77241000  1
  O  O42  1  0.79907300  0.65790200  0.66157000  1
  O  O43  1  0.31396600  0.64996600  0.55006000  1
  O  O44  1  0.69747000  0.67164000  1.00000000  1
  O  O45  1  0.19747000  0.67164000  0.88621000  1
  O  O46  1  0.69747000  0.67164000  0.77241000  1
  O  O47  1  0.20185000  0.65801100  0.66169800  1
  O  O48  1  0.68383400  0.65102300  0.55179300  1
  O  O49  1  0.30253000  0.32836000  1.00000000  1
  O  O50  1  0.80253000  0.32836000  0.88621000  1
  O  O51  1  0.30253000  0.32836000  0.77241000  1
  O  O52  1  0.80199100  0.33759200  0.66198200  1
  O  O53  1  0.29705000  0.35043900  0.53845000  1
  O  O54  1  0.69747000  0.32836000  1.00000000  1
  O  O55  1  0.19747000  0.32836000  0.88621000  1
  O  O56  1  0.69747000  0.32836000  0.77241000  1
  O  O57  1  0.19930900  0.33785700  0.66239600  1
  O  O58  1  0.70786500  0.34968300  0.53892300  1
  O  O59  1  0.00000000  0.82836000  0.95506000  1
  O  O60  1  0.50000000  0.82836000  0.84126000  1
  O  O61  1  0.99978400  0.84468700  0.72933600  1
  O  O62  1  0.49831600  0.82692600  0.60739500  1
  O  O63  1  0.50000000  0.82836000  0.93115000  1
  O  O64  1  0.00000000  0.82836000  0.81736000  1
  O  O65  1  0.50148100  0.83910300  0.69771500  1
  O  O66  1  0.99999300  0.79493700  0.59275300  1
  O  O67  1  0.00000000  0.50000000  0.95668000  1
  O  O68  1  0.50000000  0.50000000  0.84289000  1
  O  O69  1  0.99950800  0.49998000  0.72830400  1
  O  O70  1  0.49915200  0.49006900  0.61149900  1
  O  O71  1  0.50000000  0.50000000  0.92952000  1
  O  O72  1  1.00000000  0.50000000  0.81573000  1
  O  O73  1  0.50061500  0.49458500  0.70029100  1
  O  O74  1  0.00072200  0.50116900  0.58987700  1
  O  O75  1  0.30966000  1.00000000  1.00000000  1
  O  O76  1  0.80966000  0.00000000  0.88621000  1
  O  O77  1  0.30966000  1.00000000  0.77241000  1
  O  O78  1  0.80759700  0.00263700  0.64517900  1
  O  O79  1  0.25498300  0.99212400  0.54582100  1
  O  O80  1  0.69034000  0.00000000  1.00000000  1
  O  O81  1  0.19034000  1.00000000  0.88621000  1
  O  O82  1  0.69034000  0.00000000  0.77241000  1
  O  O83  1  0.19357700  0.00190500  0.64549200  1
  O  O84  1  0.74697400  0.99671800  0.54605100  1
