# generated using pymatgen
data_MgTiMnVZnCrFeCoCuNiSb20ClO54
_symmetry_space_group_name_H-M   'P 1'
_cell_length_a   6.67578800
_cell_length_b   9.46904200
_cell_length_c   28.84102600
_cell_angle_alpha   90.07926000
_cell_angle_beta   89.96644200
_cell_angle_gamma   89.99427900
_symmetry_Int_Tables_number   1
_chemical_formula_structural   MgTiMnVZnCrFeCoCuNiSb20ClO54
_chemical_formula_sum
'Mg1 Ti1 Mn1 V1 Zn1 Cr1 Fe1 Co1 Cu1 Ni1 Sb20 Cl1 O54'
_cell_volume   1823.13485148
_cell_formula_units_Z   1
loop_
 _symmetry_equiv_pos_site_id
 _symmetry_equiv_pos_as_xyz
  1  'x, y, z'
loop_
 _atom_site_type_symbol
 _atom_site_label
 _atom_site_symmetry_multiplicity
 _atom_site_fract_x
 _atom_site_fract_y
 _atom_site_fract_z
 _atom_site_occupancy
  Mg  Mg0  1  0.00000000  0.33232000  0.00000000  1
  Ti  Ti1  1  0.49814400  0.50646500  0.53995700  1
  Mn  Mn2  1  0.50000000  0.33232000  0.88621000  1
  V  V3  1  0.00000000  0.83232000  0.88621000  1
  Zn  Zn4  1  0.50000000  0.83232000  0.00000000  1
  Cr  Cr5  1  0.50000000  0.00000000  0.88621000  1
  Fe  Fe6  1  0.99909400  0.18365700  0.66042500  1
  Co  Co7  1  0.00000000  0.33232000  0.77241000  1
  Cu  Cu8  1  0.49851300  0.82485200  0.54209600  1
  Ni  Ni9  1  0.99930400  0.49749200  0.65937100  1
  Sb  Sb10  1  0.00000000  0.00000000  0.00000000  1
  Sb  Sb11  1  1.00000000  0.00000000  0.77241000  1
  Sb  Sb12  1  0.50055600  0.00049100  0.65206700  1
  Sb  Sb13  1  0.99856800  0.00582800  0.53861700  1
  Sb  Sb14  1  0.50000000  0.50000000  0.00000000  1
  Sb  Sb15  1  0.00000000  0.50000000  0.88621000  1
  Sb  Sb16  1  0.50000000  0.50000000  0.77241000  1
  Sb  Sb17  1  0.00000000  0.66768000  0.00000000  1
  Sb  Sb18  1  0.50000000  0.66768000  0.88621000  1
  Sb  Sb19  1  1.00000000  0.66768000  0.77241000  1
  Sb  Sb20  1  0.50043500  0.66848500  0.65578200  1
  Sb  Sb21  1  0.99979800  0.66245300  0.53785100  1
  Sb  Sb22  1  0.50000000  0.16768000  0.00000000  1
  Sb  Sb23  1  0.00000000  0.16768000  0.88621000  1
  Sb  Sb24  1  0.50000000  0.16768000  0.77241000  1
  Sb  Sb25  1  0.49713900  0.16315600  0.53084800  1
  Sb  Sb26  1  0.50000000  0.83232000  0.77241000  1
  Sb  Sb27  1  0.00038200  0.83515800  0.65439100  1
  Sb  Sb28  1  0.49913200  0.33454100  0.65169300  1
  Sb  Sb29  1  0.00003700  0.33691600  0.54419600  1
  Cl  Cl30  1  0.47906800  0.47013400  0.46180700  1
  O  O31  1  0.00000000  0.82836000  0.95506000  1
  O  O32  1  0.50000000  0.82836000  0.84126000  1
  O  O33  1  0.00019600  0.84474300  0.72934800  1
  O  O34  1  0.50271100  0.82928900  0.61348300  1
  O  O35  1  0.50000000  0.82836000  0.93115000  1
  O  O36  1  0.00000000  0.82836000  0.81736000  1
  O  O37  1  0.49885300  0.83555000  0.70279500  1
  O  O38  1  0.99581200  0.83214300  0.58447800  1
  O  O39  1  0.69747000  0.32836000  0.00000000  1
  O  O40  1  0.19747000  0.32836000  0.88621000  1
  O  O41  1  0.69747000  0.32836000  0.77241000  1
  O  O42  1  0.20132100  0.33322800  0.65751000  1
  O  O43  1  0.68681200  0.34746800  0.55082900  1
  O  O44  1  0.30253000  0.32836000  0.00000000  1
  O  O45  1  0.80253000  0.32836000  0.88621000  1
  O  O46  1  0.30253000  0.32836000  0.77241000  1
  O  O47  1  0.79671200  0.33312100  0.65790200  1
  O  O48  1  0.31097500  0.34688700  0.55336000  1
  O  O49  1  0.69747000  0.67164000  0.00000000  1
  O  O50  1  0.19747000  0.67164000  0.88621000  1
  O  O51  1  0.69747000  0.67164000  0.77241000  1
  O  O52  1  0.19476700  0.67320500  0.66024100  1
  O  O53  1  0.68576700  0.65835000  0.54213100  1
  O  O54  1  0.30253000  0.67164000  0.00000000  1
  O  O55  1  0.80253000  0.67164000  0.88621000  1
  O  O56  1  0.30253000  0.67164000  0.77241000  1
  O  O57  1  0.80561900  0.67366100  0.66099000  1
  O  O58  1  0.31145500  0.65890500  0.54516300  1
  O  O59  1  0.00000000  0.17164000  0.95506000  1
  O  O60  1  0.50000000  0.17164000  0.84126000  1
  O  O61  1  0.00021600  0.15531300  0.72933600  1
  O  O62  1  0.50192300  0.16357300  0.60843700  1
  O  O63  1  0.50000000  0.17164000  0.93115000  1
  O  O64  1  0.00000000  0.17164000  0.81736000  1
  O  O65  1  0.49959300  0.16029300  0.70008900  1
  O  O66  1  0.99773600  0.16469400  0.58755100  1
  O  O67  1  0.00000000  0.50000000  0.95668000  1
  O  O68  1  0.50000000  0.50000000  0.84289000  1
  O  O69  1  0.00049200  0.50002000  0.72830400  1
  O  O70  1  0.50414900  0.50956500  0.61252500  1
  O  O71  1  0.50000000  0.50000000  0.92952000  1
  O  O72  1  0.00000000  0.50000000  0.81573000  1
  O  O73  1  0.49808400  0.50539300  0.70102300  1
  O  O74  1  0.99566500  0.50803900  0.58713100  1
  O  O75  1  0.69034000  1.00000000  0.00000000  1
  O  O76  1  0.19034000  0.00000000  0.88621000  1
  O  O77  1  0.69034000  0.00000000  0.77241000  1
  O  O78  1  0.19669400  0.99713900  0.65719400  1
  O  O79  1  0.68809000  0.98902700  0.54515000  1
  O  O80  1  0.30966000  1.00000000  0.00000000  1
  O  O81  1  0.80966000  0.00000000  0.88621000  1
  O  O82  1  0.30966000  0.00000000  0.77241000  1
  O  O83  1  0.80430500  0.99738700  0.65767700  1
  O  O84  1  0.30850400  0.98837000  0.54600400  1
