# generated using pymatgen
data_MgTiMnVZnCrFeCoCuNiSb20ClO54
_symmetry_space_group_name_H-M   'P 1'
_cell_length_a   6.62132100
_cell_length_b   9.44453000
_cell_length_c   28.43973100
_cell_angle_alpha   89.70461700
_cell_angle_beta   89.95727700
_cell_angle_gamma   89.94688000
_symmetry_Int_Tables_number   1
_chemical_formula_structural   MgTiMnVZnCrFeCoCuNiSb20ClO54
_chemical_formula_sum
'Mg1 Ti1 Mn1 V1 Zn1 Cr1 Fe1 Co1 Cu1 Ni1 Sb20 Cl1 O54'
_cell_volume   1778.46122273
_cell_formula_units_Z   1
loop_
 _symmetry_equiv_pos_site_id
 _symmetry_equiv_pos_as_xyz
  1  'x, y, z'
loop_
 _atom_site_type_symbol
 _atom_site_label
 _atom_site_symmetry_multiplicity
 _atom_site_fract_x
 _atom_site_fract_y
 _atom_site_fract_z
 _atom_site_occupancy
  Mg  Mg0  1  0.00000000  0.33232000  0.00000000  1
  Ti  Ti1  1  0.49800000  0.53984700  0.52039100  1
  Mn  Mn2  1  0.50000000  0.66768000  0.88621000  1
  V  V3  1  0.99595100  0.65724300  0.54962700  1
  Zn  Zn4  1  0.50000000  0.50000000  0.00000000  1
  Cr  Cr5  1  0.00000000  0.66768000  0.00000000  1
  Fe  Fe6  1  0.50000000  1.00000000  0.88621000  1
  Co  Co7  1  0.50000000  0.16768000  0.00000000  1
  Cu  Cu8  1  0.50000000  0.33232000  0.88621000  1
  Ni  Ni9  1  0.00000000  0.66768000  0.77241000  1
  Sb  Sb10  1  0.00000000  0.00000000  0.00000000  1
  Sb  Sb11  1  0.00000000  0.00000000  0.77241000  1
  Sb  Sb12  1  0.50382200  0.98078600  0.63057800  1
  Sb  Sb13  1  0.99976100  0.97577700  0.50922200  1
  Sb  Sb14  1  0.00000000  0.50000000  0.88621000  1
  Sb  Sb15  1  0.50000000  0.50000000  0.77241000  1
  Sb  Sb16  1  0.99117000  0.49820100  0.65689500  1
  Sb  Sb17  1  0.50084500  0.67987300  0.65062400  1
  Sb  Sb18  1  0.00000000  0.16768000  0.88621000  1
  Sb  Sb19  1  0.50000000  0.16768000  0.77241000  1
  Sb  Sb20  1  0.99429300  0.16827800  0.63328600  1
  Sb  Sb21  1  0.49588100  0.20577600  0.52676600  1
  Sb  Sb22  1  0.50000000  0.83232000  0.00000000  1
  Sb  Sb23  1  0.00000000  0.83232000  0.88621000  1
  Sb  Sb24  1  0.50000000  0.83232000  0.77241000  1
  Sb  Sb25  1  0.99994400  0.83278600  0.66097900  1
  Sb  Sb26  1  0.50274000  0.88111100  0.48942600  1
  Sb  Sb27  1  0.00000000  0.33232000  0.77241000  1
  Sb  Sb28  1  0.49683300  0.32929900  0.65757300  1
  Sb  Sb29  1  0.99685700  0.36052900  0.50149100  1
  Cl  Cl30  1  0.48757800  0.54627200  0.44088000  1
  O  O31  1  0.00000000  0.82836000  0.95506000  1
  O  O32  1  0.50000000  0.82836000  0.84126000  1
  O  O33  1  0.00019600  0.84474300  0.72934800  1
  O  O34  1  0.50773800  0.95006900  0.55542400  1
  O  O35  1  0.50000000  0.82836000  0.93115000  1
  O  O36  1  0.00000000  0.82836000  0.81736000  1
  O  O37  1  0.49258700  0.83818300  0.70359800  1
  O  O38  1  0.97646900  0.79296300  0.59213000  1
  O  O39  1  0.69747000  0.32836000  1.00000000  1
  O  O40  1  0.19747000  0.32836000  0.88621000  1
  O  O41  1  0.69747000  0.32836000  0.77241000  1
  O  O42  1  0.19815200  0.31497900  0.66478500  1
  O  O43  1  0.68536100  0.37512900  0.52270500  1
  O  O44  1  0.30253000  0.32836000  0.00000000  1
  O  O45  1  0.80253000  0.32836000  0.88621000  1
  O  O46  1  0.30253000  0.32836000  0.77241000  1
  O  O47  1  0.79305200  0.31352800  0.66735700  1
  O  O48  1  0.30911000  0.37651200  0.52373400  1
  O  O49  1  0.69747000  0.67164000  1.00000000  1
  O  O50  1  0.19747000  0.67164000  0.88621000  1
  O  O51  1  0.69747000  0.67164000  0.77241000  1
  O  O52  1  0.19438900  0.67347900  0.66809200  1
  O  O53  1  0.73633600  0.65848500  0.52489700  1
  O  O54  1  0.30253000  0.67164000  0.00000000  1
  O  O55  1  0.80253000  0.67164000  0.88621000  1
  O  O56  1  0.30253000  0.67164000  0.77241000  1
  O  O57  1  0.80044000  0.67637500  0.67238300  1
  O  O58  1  0.26181500  0.66080900  0.52803600  1
  O  O59  1  0.00000000  0.17164000  0.95506000  1
  O  O60  1  0.50000000  0.17164000  0.84126000  1
  O  O61  1  0.00021600  0.15531300  0.72933600  1
  O  O62  1  0.49728700  0.19756400  0.60117400  1
  O  O63  1  0.50000000  0.17164000  0.93115000  1
  O  O64  1  0.00000000  0.17164000  0.81736000  1
  O  O65  1  0.49253100  0.16420100  0.70176100  1
  O  O66  1  0.00502600  0.17275000  0.53482800  1
  O  O67  1  0.00000000  0.50000000  0.95668000  1
  O  O68  1  0.50000000  0.50000000  0.84289000  1
  O  O69  1  0.00049200  0.50002000  0.72830400  1
  O  O70  1  0.50489100  0.49082300  0.61158600  1
  O  O71  1  0.50000000  0.50000000  0.92952000  1
  O  O72  1  0.00000000  0.50000000  0.81573000  1
  O  O73  1  0.49748400  0.50125600  0.70080300  1
  O  O74  1  0.99748100  0.47636200  0.56168900  1
  O  O75  1  0.69034000  0.00000000  1.00000000  1
  O  O76  1  0.19034000  1.00000000  0.88621000  1
  O  O77  1  0.69034000  0.00000000  0.77241000  1
  O  O78  1  0.18806200  0.99440900  0.64741800  1
  O  O79  1  0.74475600  0.01625000  0.47352900  1
  O  O80  1  0.30966000  1.00000000  0.00000000  1
  O  O81  1  0.80966000  0.00000000  0.88621000  1
  O  O82  1  0.30966000  1.00000000  0.77241000  1
  O  O83  1  0.81397400  0.99794700  0.65661900  1
  O  O84  1  0.26003100  0.01270500  0.47413400  1
