# generated using pymatgen
data_MgTiMnVZnCrFeCoCuNiSb20ClO54
_symmetry_space_group_name_H-M   'P 1'
_cell_length_a   6.61361000
_cell_length_b   9.65458600
_cell_length_c   28.70203900
_cell_angle_alpha   89.75028800
_cell_angle_beta   89.84083400
_cell_angle_gamma   89.99773600
_symmetry_Int_Tables_number   1
_chemical_formula_structural   MgTiMnVZnCrFeCoCuNiSb20ClO54
_chemical_formula_sum
'Mg1 Ti1 Mn1 V1 Zn1 Cr1 Fe1 Co1 Cu1 Ni1 Sb20 Cl1 O54'
_cell_volume   1832.64854489
_cell_formula_units_Z   1
loop_
 _symmetry_equiv_pos_site_id
 _symmetry_equiv_pos_as_xyz
  1  'x, y, z'
loop_
 _atom_site_type_symbol
 _atom_site_label
 _atom_site_symmetry_multiplicity
 _atom_site_fract_x
 _atom_site_fract_y
 _atom_site_fract_z
 _atom_site_occupancy
  Mg  Mg0  1  0.00000000  0.00000000  0.22759000  1
  Ti  Ti1  1  0.49332900  0.48931100  0.45736600  1
  Mn  Mn2  1  0.99378900  0.33881700  0.44903800  1
  V  V3  1  0.00000000  0.50000000  0.11379000  1
  Zn  Zn4  1  0.49807600  0.99885300  0.35014300  1
  Cr  Cr5  1  0.00000000  0.00000000  0.00000000  1
  Fe  Fe6  1  0.00000000  0.66768000  0.00000000  1
  Co  Co7  1  0.50000000  0.50000000  0.22759000  1
  Cu  Cu8  1  0.00000000  0.83232000  0.11379000  1
  Ni  Ni9  1  0.00000000  0.66768000  0.22759000  1
  Sb  Sb10  1  0.50000000  1.00000000  0.11379000  1
  Sb  Sb11  1  0.99542500  0.99918200  0.45533100  1
  Sb  Sb12  1  0.50000000  0.50000000  0.00000000  1
  Sb  Sb13  1  0.99874000  0.50095200  0.33997800  1
  Sb  Sb14  1  1.00000000  0.33232000  0.00000000  1
  Sb  Sb15  1  0.50000000  0.33232000  0.11379000  1
  Sb  Sb16  1  1.00000000  0.33232000  0.22759000  1
  Sb  Sb17  1  0.49836500  0.33260300  0.34062600  1
  Sb  Sb18  1  0.50000000  0.83232000  0.00000000  1
  Sb  Sb19  1  0.50000000  0.83232000  0.22759000  1
  Sb  Sb20  1  0.99750500  0.83908000  0.33683500  1
  Sb  Sb21  1  0.49489400  0.81766900  0.45899200  1
  Sb  Sb22  1  0.50000000  0.16768000  0.00000000  1
  Sb  Sb23  1  1.00000000  0.16768000  0.11379000  1
  Sb  Sb24  1  0.50000000  0.16768000  0.22759000  1
  Sb  Sb25  1  0.99862500  0.15549300  0.34000900  1
  Sb  Sb26  1  0.49440600  0.16439800  0.45925000  1
  Sb  Sb27  1  0.50000000  0.66768000  0.11379000  1
  Sb  Sb28  1  0.49789300  0.66816700  0.34060100  1
  Sb  Sb29  1  0.99513300  0.65825200  0.45835100  1
  Cl  Cl30  1  0.48542600  0.52634600  0.53627100  1
  O  O31  1  1.00000000  0.17164000  0.04494000  1
  O  O32  1  0.50000000  0.17164000  0.15874000  1
  O  O33  1  0.00019600  0.15525700  0.27065200  1
  O  O34  1  0.49852800  0.18564600  0.38835700  1
  O  O35  1  0.50000000  0.17164000  0.06885000  1
  O  O36  1  1.00000000  0.17164000  0.18264000  1
  O  O37  1  0.49781400  0.17190800  0.29806900  1
  O  O38  1  0.99680100  0.16710500  0.41090900  1
  O  O39  1  0.69747000  0.67164000  1.00000000  1
  O  O40  1  0.19747000  0.67164000  0.11379000  1
  O  O41  1  0.69747000  0.67164000  0.22759000  1
  O  O42  1  0.19030200  0.66905000  0.34085200  1
  O  O43  1  0.68658100  0.64373600  0.44679300  1
  O  O44  1  0.30253000  0.67164000  0.00000000  1
  O  O45  1  0.80253000  0.67164000  0.11379000  1
  O  O46  1  0.30253000  0.67164000  0.22759000  1
  O  O47  1  0.80602000  0.66823200  0.34037900  1
  O  O48  1  0.30319600  0.64522100  0.44575200  1
  O  O49  1  0.69747000  0.32836000  1.00000000  1
  O  O50  1  0.19747000  0.32836000  0.11379000  1
  O  O51  1  0.69747000  0.32836000  0.22759000  1
  O  O52  1  0.18834100  0.32894100  0.34071500  1
  O  O53  1  0.70499400  0.35333700  0.45752900  1
  O  O54  1  0.30253000  0.32836000  0.00000000  1
  O  O55  1  0.80253000  0.32836000  0.11379000  1
  O  O56  1  0.30253000  0.32836000  0.22759000  1
  O  O57  1  0.80840900  0.32942000  0.34071100  1
  O  O58  1  0.28232900  0.35325900  0.45689700  1
  O  O59  1  0.00000000  0.82836000  0.04494000  1
  O  O60  1  0.50000000  0.82836000  0.15874000  1
  O  O61  1  0.00021600  0.84468700  0.27066400  1
  O  O62  1  0.49952800  0.81699500  0.38735400  1
  O  O63  1  0.50000000  0.82836000  0.06885000  1
  O  O64  1  0.00000000  0.82836000  0.18264000  1
  O  O65  1  0.49914300  0.83142200  0.29865600  1
  O  O66  1  0.99340400  0.82620000  0.41013400  1
  O  O67  1  0.00000000  0.50000000  0.04332000  1
  O  O68  1  0.50000000  0.50000000  0.15711000  1
  O  O69  1  0.00049200  0.49998000  0.27169600  1
  O  O70  1  0.49604400  0.49536500  0.38363600  1
  O  O71  1  0.50000000  0.50000000  0.07048000  1
  O  O72  1  0.00000000  0.50000000  0.18427000  1
  O  O73  1  0.49768300  0.49937300  0.29653900  1
  O  O74  1  0.99453500  0.50443900  0.40929000  1
  O  O75  1  0.69034000  0.00000000  1.00000000  1
  O  O76  1  0.19034000  1.00000000  0.11379000  1
  O  O77  1  0.69034000  0.00000000  0.22759000  1
  O  O78  1  0.19418200  0.99744200  0.34337400  1
  O  O79  1  0.69084000  0.99829700  0.44093700  1
  O  O80  1  0.30966000  1.00000000  0.00000000  1
  O  O81  1  0.80966000  0.00000000  0.11379000  1
  O  O82  1  0.30966000  1.00000000  0.22759000  1
  O  O83  1  0.80178100  0.99835500  0.34296000  1
  O  O84  1  0.30010300  0.99753400  0.44035800  1
