# generated using pymatgen
data_MgTiMnVZnCrFeCoCuNiSb20ClO54
_symmetry_space_group_name_H-M   'P 1'
_cell_length_a   6.59958100
_cell_length_b   9.63234900
_cell_length_c   29.24571700
_cell_angle_alpha   89.97127000
_cell_angle_beta   89.98349500
_cell_angle_gamma   89.92596900
_symmetry_Int_Tables_number   1
_chemical_formula_structural   MgTiMnVZnCrFeCoCuNiSb20ClO54
_chemical_formula_sum
'Mg1 Ti1 Mn1 V1 Zn1 Cr1 Fe1 Co1 Cu1 Ni1 Sb20 Cl1 O54'
_cell_volume   1859.13279235
_cell_formula_units_Z   1
loop_
 _symmetry_equiv_pos_site_id
 _symmetry_equiv_pos_as_xyz
  1  'x, y, z'
loop_
 _atom_site_type_symbol
 _atom_site_label
 _atom_site_symmetry_multiplicity
 _atom_site_fract_x
 _atom_site_fract_y
 _atom_site_fract_z
 _atom_site_occupancy
  Mg  Mg0  1  0.00000000  0.16768000  0.11379000  1
  Ti  Ti1  1  0.50012300  0.49890600  0.45434100  1
  Mn  Mn2  1  0.00279600  0.98912800  0.42327900  1
  V  V3  1  0.00000000  0.00000000  0.00000000  1
  Zn  Zn4  1  0.99852900  0.83772800  0.33880900  1
  Cr  Cr5  1  0.50000000  0.83232000  0.22759000  1
  Fe  Fe6  1  0.50000000  0.50000000  0.22759000  1
  Co  Co7  1  0.00194800  0.33693700  0.44618000  1
  Cu  Cu8  1  0.00000000  0.83232000  0.11379000  1
  Ni  Ni9  1  0.49920100  0.00116100  0.34105800  1
  Sb  Sb10  1  0.50000000  1.00000000  0.11379000  1
  Sb  Sb11  1  0.00000000  1.00000000  0.22759000  1
  Sb  Sb12  1  0.50000000  0.50000000  0.00000000  1
  Sb  Sb13  1  0.00000000  0.50000000  0.11379000  1
  Sb  Sb14  1  0.00066900  0.50888400  0.34204200  1
  Sb  Sb15  1  0.00000000  0.66768000  1.00000000  1
  Sb  Sb16  1  0.50000000  0.66768000  0.11379000  1
  Sb  Sb17  1  0.00000000  0.66768000  0.22759000  1
  Sb  Sb18  1  0.50013200  0.67299700  0.33557400  1
  Sb  Sb19  1  0.99815300  0.66051200  0.45688100  1
  Sb  Sb20  1  0.50000000  0.16768000  1.00000000  1
  Sb  Sb21  1  0.50000000  0.16768000  0.22759000  1
  Sb  Sb22  1  0.99954700  0.15626400  0.34170700  1
  Sb  Sb23  1  0.50427700  0.18249000  0.45463400  1
  Sb  Sb24  1  0.50000000  0.83232000  1.00000000  1
  Sb  Sb25  1  0.49867200  0.82792000  0.45055400  1
  Sb  Sb26  1  0.00000000  0.33232000  1.00000000  1
  Sb  Sb27  1  0.50000000  0.33232000  0.11379000  1
  Sb  Sb28  1  0.00000000  0.33232000  0.22759000  1
  Sb  Sb29  1  0.49991500  0.33455500  0.33890300  1
  Cl  Cl30  1  0.50360100  0.52205100  0.53197300  1
  O  O31  1  0.00000000  0.82836000  0.04494000  1
  O  O32  1  0.50000000  0.82836000  0.15874000  1
  O  O33  1  0.99980400  0.84474300  0.27065200  1
  O  O34  1  0.49909900  0.82884600  0.38178200  1
  O  O35  1  0.50000000  0.82836000  0.06885000  1
  O  O36  1  0.00000000  0.82836000  0.18264000  1
  O  O37  1  0.49996800  0.83634900  0.29434900  1
  O  O38  1  0.99858600  0.80420000  0.40892400  1
  O  O39  1  0.30253000  0.32836000  1.00000000  1
  O  O40  1  0.80253000  0.32836000  0.11379000  1
  O  O41  1  0.30253000  0.32836000  0.22759000  1
  O  O42  1  0.81219200  0.33450500  0.33696300  1
  O  O43  1  0.29602200  0.35133400  0.45434100  1
  O  O44  1  0.69747000  0.32836000  1.00000000  1
  O  O45  1  0.19747000  0.32836000  0.11379000  1
  O  O46  1  0.69747000  0.32836000  0.22759000  1
  O  O47  1  0.18801800  0.33435000  0.33651000  1
  O  O48  1  0.70685600  0.35156500  0.45404700  1
  O  O49  1  0.30253000  0.67164000  1.00000000  1
  O  O50  1  0.80253000  0.67164000  0.11379000  1
  O  O51  1  0.30253000  0.67164000  0.22759000  1
  O  O52  1  0.80302400  0.66226400  0.33565800  1
  O  O53  1  0.31339100  0.65282400  0.44605400  1
  O  O54  1  0.69747000  0.67164000  1.00000000  1
  O  O55  1  0.19747000  0.67164000  0.11379000  1
  O  O56  1  0.69747000  0.67164000  0.22759000  1
  O  O57  1  0.19739600  0.66228600  0.33548200  1
  O  O58  1  0.68596300  0.64983100  0.44449600  1
  O  O59  1  0.00000000  0.17164000  0.04494000  1
  O  O60  1  0.50000000  0.17164000  0.15874000  1
  O  O61  1  0.99978400  0.15531300  0.27066400  1
  O  O62  1  0.50011600  0.18164600  0.38527500  1
  O  O63  1  0.50000000  0.17164000  0.06885000  1
  O  O64  1  0.00000000  0.17164000  0.18264000  1
  O  O65  1  0.50019800  0.16996100  0.29698500  1
  O  O66  1  0.00306900  0.18111100  0.40845200  1
  O  O67  1  0.00000000  0.50000000  0.04332000  1
  O  O68  1  0.50000000  0.50000000  0.15711000  1
  O  O69  1  0.99950800  0.50002000  0.27169600  1
  O  O70  1  0.49872500  0.49916600  0.38017500  1
  O  O71  1  0.50000000  0.50000000  0.07048000  1
  O  O72  1  0.00000000  0.50000000  0.18427000  1
  O  O73  1  0.49996700  0.49675400  0.29321700  1
  O  O74  1  0.00210000  0.50422700  0.40901400  1
  O  O75  1  0.30966000  0.00000000  0.00000000  1
  O  O76  1  0.80966000  1.00000000  0.11379000  1
  O  O77  1  0.30966000  1.00000000  0.22759000  1
  O  O78  1  0.80086000  0.00647400  0.34736800  1
  O  O79  1  0.23526800  0.98981400  0.45202900  1
  O  O80  1  0.69034000  0.00000000  0.00000000  1
  O  O81  1  0.19034000  1.00000000  0.11379000  1
  O  O82  1  0.69034000  1.00000000  0.22759000  1
  O  O83  1  0.19722700  0.00538800  0.34759200  1
  O  O84  1  0.77553800  0.99696700  0.45321500  1
