# generated using pymatgen
data_MgTiMnVZnCrFeCoCuNiSb20ClO54
_symmetry_space_group_name_H-M   'P 1'
_cell_length_a   6.76071400
_cell_length_b   9.35183400
_cell_length_c   28.70892300
_cell_angle_alpha   90.42234300
_cell_angle_beta   89.96080900
_cell_angle_gamma   89.95672200
_symmetry_Int_Tables_number   1
_chemical_formula_structural   MgTiMnVZnCrFeCoCuNiSb20ClO54
_chemical_formula_sum
'Mg1 Ti1 Mn1 V1 Zn1 Cr1 Fe1 Co1 Cu1 Ni1 Sb20 Cl1 O54'
_cell_volume   1815.07354910
_cell_formula_units_Z   1
loop_
 _symmetry_equiv_pos_site_id
 _symmetry_equiv_pos_as_xyz
  1  'x, y, z'
loop_
 _atom_site_type_symbol
 _atom_site_label
 _atom_site_symmetry_multiplicity
 _atom_site_fract_x
 _atom_site_fract_y
 _atom_site_fract_z
 _atom_site_occupancy
  Mg  Mg0  1  0.50000000  0.33232000  0.88621000  1
  Ti  Ti1  1  0.50250200  0.48584600  0.54075500  1
  Mn  Mn2  1  0.50000000  0.83232000  0.00000000  1
  V  V3  1  0.49869200  0.16983900  0.54692700  1
  Zn  Zn4  1  0.00000000  0.66768000  0.77241000  1
  Cr  Cr5  1  0.50000000  0.83232000  0.77241000  1
  Fe  Fe6  1  0.00000000  0.00000000  0.77241000  1
  Co  Co7  1  0.50000000  0.66768000  0.88621000  1
  Cu  Cu8  1  1.00000000  0.50000000  0.88621000  1
  Ni  Ni9  1  0.99791900  0.16417900  0.65855000  1
  Sb  Sb10  1  0.00000000  0.00000000  0.00000000  1
  Sb  Sb11  1  0.50000000  1.00000000  0.88621000  1
  Sb  Sb12  1  0.50127600  0.99470400  0.65807500  1
  Sb  Sb13  1  0.01329300  0.00235900  0.53915500  1
  Sb  Sb14  1  0.50000000  0.50000000  0.00000000  1
  Sb  Sb15  1  0.50000000  0.50000000  0.77241000  1
  Sb  Sb16  1  0.00685200  0.49116100  0.65920700  1
  Sb  Sb17  1  1.00000000  0.33232000  0.00000000  1
  Sb  Sb18  1  1.00000000  0.33232000  0.77241000  1
  Sb  Sb19  1  0.49825400  0.33091600  0.65540300  1
  Sb  Sb20  1  0.99489200  0.32543400  0.53559100  1
  Sb  Sb21  1  0.00000000  0.83232000  0.88621000  1
  Sb  Sb22  1  0.00065800  0.83999000  0.66213000  1
  Sb  Sb23  1  0.50630500  0.82243000  0.53403500  1
  Sb  Sb24  1  0.50000000  0.16768000  0.00000000  1
  Sb  Sb25  1  0.00000000  0.16768000  0.88621000  1
  Sb  Sb26  1  0.50000000  0.16768000  0.77241000  1
  Sb  Sb27  1  0.00000000  0.66768000  0.00000000  1
  Sb  Sb28  1  0.50351600  0.66598900  0.65058600  1
  Sb  Sb29  1  0.99562100  0.65969900  0.53863500  1
  Cl  Cl30  1  0.51905300  0.53391900  0.46167700  1
  O  O31  1  1.00000000  0.17164000  0.95506000  1
  O  O32  1  0.50000000  0.17164000  0.84126000  1
  O  O33  1  0.99980400  0.15525700  0.72934800  1
  O  O34  1  0.50530600  0.16062700  0.61233500  1
  O  O35  1  0.50000000  0.17164000  0.93115000  1
  O  O36  1  0.00000000  0.17164000  0.81736000  1
  O  O37  1  0.50330100  0.16913500  0.70092400  1
  O  O38  1  0.00091900  0.16788700  0.58624800  1
  O  O39  1  0.30253000  0.67164000  1.00000000  1
  O  O40  1  0.80253000  0.67164000  0.88621000  1
  O  O41  1  0.30253000  0.67164000  0.77241000  1
  O  O42  1  0.82075100  0.66353300  0.65784400  1
  O  O43  1  0.30970100  0.66131200  0.54759600  1
  O  O44  1  0.69747000  0.67164000  0.00000000  1
  O  O45  1  0.19747000  0.67164000  0.88621000  1
  O  O46  1  0.69747000  0.67164000  0.77241000  1
  O  O47  1  0.19024300  0.66734800  0.65816100  1
  O  O48  1  0.68738200  0.63721800  0.55505800  1
  O  O49  1  0.30253000  0.32836000  1.00000000  1
  O  O50  1  0.80253000  0.32836000  0.88621000  1
  O  O51  1  0.30253000  0.32836000  0.77241000  1
  O  O52  1  0.79807900  0.33483600  0.65540900  1
  O  O53  1  0.32064500  0.31325000  0.53156000  1
  O  O54  1  0.69747000  0.32836000  0.00000000  1
  O  O55  1  0.19747000  0.32836000  0.88621000  1
  O  O56  1  0.69747000  0.32836000  0.77241000  1
  O  O57  1  0.19676100  0.32395100  0.66057900  1
  O  O58  1  0.68475400  0.33892500  0.54682800  1
  O  O59  1  0.00000000  0.82836000  0.95506000  1
  O  O60  1  0.50000000  0.82836000  0.84126000  1
  O  O61  1  0.99978400  0.84468700  0.72933600  1
  O  O62  1  0.51927200  0.85563300  0.60495600  1
  O  O63  1  0.50000000  0.82836000  0.93115000  1
  O  O64  1  0.00000000  0.82836000  0.81736000  1
  O  O65  1  0.50149500  0.83440800  0.70188900  1
  O  O66  1  0.99371200  0.83328700  0.58864100  1
  O  O67  1  0.00000000  0.50000000  0.95668000  1
  O  O68  1  0.50000000  0.50000000  0.84289000  1
  O  O69  1  0.99950800  0.49998000  0.72830400  1
  O  O70  1  0.44606200  0.47030400  0.60724700  1
  O  O71  1  0.50000000  0.50000000  0.92952000  1
  O  O72  1  0.00000000  0.50000000  0.81573000  1
  O  O73  1  0.49664500  0.48807000  0.70178900  1
  O  O74  1  0.01734100  0.49029000  0.58711200  1
  O  O75  1  0.30966000  0.00000000  1.00000000  1
  O  O76  1  0.80966000  1.00000000  0.88621000  1
  O  O77  1  0.30966000  0.00000000  0.77241000  1
  O  O78  1  0.80131500  0.00065600  0.65537200  1
  O  O79  1  0.31329600  0.01007800  0.54171500  1
  O  O80  1  0.69034000  1.00000000  0.00000000  1
  O  O81  1  0.19034000  0.00000000  0.88621000  1
  O  O82  1  0.69034000  1.00000000  0.77241000  1
  O  O83  1  0.20139900  0.99844900  0.65407800  1
  O  O84  1  0.67990200  0.06438400  0.52392400  1
