# generated using pymatgen
data_MgTiMnVZnCrFeCoCuNiSb20ClO54
_symmetry_space_group_name_H-M   'P 1'
_cell_length_a   6.68663600
_cell_length_b   9.38824000
_cell_length_c   29.82142200
_cell_angle_alpha   89.97784700
_cell_angle_beta   89.94465400
_cell_angle_gamma   89.99118000
_symmetry_Int_Tables_number   1
_chemical_formula_structural   MgTiMnVZnCrFeCoCuNiSb20ClO54
_chemical_formula_sum
'Mg1 Ti1 Mn1 V1 Zn1 Cr1 Fe1 Co1 Cu1 Ni1 Sb20 Cl1 O54'
_cell_volume   1872.06090467
_cell_formula_units_Z   1
loop_
 _symmetry_equiv_pos_site_id
 _symmetry_equiv_pos_as_xyz
  1  'x, y, z'
loop_
 _atom_site_type_symbol
 _atom_site_label
 _atom_site_symmetry_multiplicity
 _atom_site_fract_x
 _atom_site_fract_y
 _atom_site_fract_z
 _atom_site_occupancy
  Mg  Mg0  1  0.49977400  0.84260100  0.55372300  1
  Ti  Ti1  1  0.49948300  0.51858200  0.54892400  1
  Mn  Mn2  1  0.50000000  0.00000000  0.88621000  1
  V  V3  1  0.49913300  0.17195000  0.55776400  1
  Zn  Zn4  1  0.50000000  0.83232000  0.77241000  1
  Cr  Cr5  1  0.50001500  0.67406100  0.66053800  1
  Fe  Fe6  1  0.99946600  0.16612800  0.65575600  1
  Co  Co7  1  0.50000000  0.16768000  1.00000000  1
  Cu  Cu8  1  0.00000000  0.83232000  0.88621000  1
  Ni  Ni9  1  0.50000000  0.83232000  1.00000000  1
  Sb  Sb10  1  0.00000000  0.00000000  0.00000000  1
  Sb  Sb11  1  0.00000000  0.00000000  0.77241000  1
  Sb  Sb12  1  0.49978800  0.98521500  0.66263000  1
  Sb  Sb13  1  0.99837200  0.00463800  0.54124400  1
  Sb  Sb14  1  0.50000000  0.50000000  1.00000000  1
  Sb  Sb15  1  0.00000000  0.50000000  0.88621000  1
  Sb  Sb16  1  0.50000000  0.50000000  0.77241000  1
  Sb  Sb17  1  0.00040800  0.49823100  0.65338400  1
  Sb  Sb18  1  0.00000000  0.66768000  0.00000000  1
  Sb  Sb19  1  0.50000000  0.66768000  0.88621000  1
  Sb  Sb20  1  0.00000000  0.66768000  0.77241000  1
  Sb  Sb21  1  0.00115200  0.66730600  0.53479200  1
  Sb  Sb22  1  0.00000000  0.16768000  0.88621000  1
  Sb  Sb23  1  0.50000000  0.16768000  0.77241000  1
  Sb  Sb24  1  0.99986900  0.83609900  0.65688800  1
  Sb  Sb25  1  1.00000000  0.33232000  0.00000000  1
  Sb  Sb26  1  0.50000000  0.33232000  0.88621000  1
  Sb  Sb27  1  0.00000000  0.33232000  0.77241000  1
  Sb  Sb28  1  0.50006400  0.34195500  0.65864800  1
  Sb  Sb29  1  0.99956200  0.32325500  0.53798800  1
  Cl  Cl30  1  0.48510600  0.47857500  0.47241900  1
  O  O31  1  0.00000000  0.82836000  0.95506000  1
  O  O32  1  0.50000000  0.82836000  0.84126000  1
  O  O33  1  0.00019600  0.84474300  0.72934800  1
  O  O34  1  0.50214400  0.82896800  0.61846900  1
  O  O35  1  0.50000000  0.82836000  0.93115000  1
  O  O36  1  0.00000000  0.82836000  0.81736000  1
  O  O37  1  0.49761500  0.82378900  0.70419700  1
  O  O38  1  0.99885200  0.83373900  0.58639800  1
  O  O39  1  0.69747000  0.32836000  1.00000000  1
  O  O40  1  0.19747000  0.32836000  0.88621000  1
  O  O41  1  0.69747000  0.32836000  0.77241000  1
  O  O42  1  0.20201600  0.32206100  0.66029500  1
  O  O43  1  0.68101400  0.32030600  0.55012200  1
  O  O44  1  0.30253000  0.32836000  1.00000000  1
  O  O45  1  0.80253000  0.32836000  0.88621000  1
  O  O46  1  0.30253000  0.32836000  0.77241000  1
  O  O47  1  0.79823400  0.32312700  0.66096300  1
  O  O48  1  0.31607000  0.31892600  0.55160400  1
  O  O49  1  0.69747000  0.67164000  0.00000000  1
  O  O50  1  0.19747000  0.67164000  0.88621000  1
  O  O51  1  0.69747000  0.67164000  0.77241000  1
  O  O52  1  0.20088300  0.67596100  0.66115100  1
  O  O53  1  0.68913500  0.66117700  0.54687700  1
  O  O54  1  0.30253000  0.67164000  1.00000000  1
  O  O55  1  0.80253000  0.67164000  0.88621000  1
  O  O56  1  0.30253000  0.67164000  0.77241000  1
  O  O57  1  0.79938700  0.67573700  0.66135800  1
  O  O58  1  0.30970600  0.66244700  0.54844200  1
  O  O59  1  0.00000000  0.17164000  0.95506000  1
  O  O60  1  0.50000000  0.17164000  0.84126000  1
  O  O61  1  0.00021600  0.15531300  0.72933600  1
  O  O62  1  0.50336300  0.16116500  0.61799500  1
  O  O63  1  0.50000000  0.17164000  0.93115000  1
  O  O64  1  0.00000000  0.17164000  0.81736000  1
  O  O65  1  0.49910200  0.16776300  0.70421800  1
  O  O66  1  0.99700900  0.16713400  0.58757700  1
  O  O67  1  0.00000000  0.50000000  0.95668000  1
  O  O68  1  0.50000000  0.50000000  0.84289000  1
  O  O69  1  0.00049200  0.50002000  0.72830400  1
  O  O70  1  0.50092700  0.50644200  0.61621300  1
  O  O71  1  0.50000000  0.50000000  0.92952000  1
  O  O72  1  0.00000000  0.50000000  0.81573000  1
  O  O73  1  0.49797500  0.50372400  0.70312600  1
  O  O74  1  0.99833300  0.49663200  0.57956200  1
  O  O75  1  0.69034000  1.00000000  1.00000000  1
  O  O76  1  0.19034000  0.00000000  0.88621000  1
  O  O77  1  0.69034000  1.00000000  0.77241000  1
  O  O78  1  0.19481500  0.00121300  0.65806400  1
  O  O79  1  0.68089600  0.02537800  0.54482700  1
  O  O80  1  0.30966000  0.00000000  1.00000000  1
  O  O81  1  0.80966000  1.00000000  0.88621000  1
  O  O82  1  0.30966000  0.00000000  0.77241000  1
  O  O83  1  0.80485600  0.00081500  0.65878300  1
  O  O84  1  0.31759200  0.02624300  0.54542100  1
