# generated using pymatgen
data_MgTiMnVZnCrFeCoCuNiSb20ClO54
_symmetry_space_group_name_H-M   'P 1'
_cell_length_a   6.67925700
_cell_length_b   9.58507500
_cell_length_c   29.61460700
_cell_angle_alpha   89.85288800
_cell_angle_beta   89.96386400
_cell_angle_gamma   89.87283800
_symmetry_Int_Tables_number   1
_chemical_formula_structural   MgTiMnVZnCrFeCoCuNiSb20ClO54
_chemical_formula_sum
'Mg1 Ti1 Mn1 V1 Zn1 Cr1 Fe1 Co1 Cu1 Ni1 Sb20 Cl1 O54'
_cell_volume   1895.95077499
_cell_formula_units_Z   1
loop_
 _symmetry_equiv_pos_site_id
 _symmetry_equiv_pos_as_xyz
  1  'x, y, z'
loop_
 _atom_site_type_symbol
 _atom_site_label
 _atom_site_symmetry_multiplicity
 _atom_site_fract_x
 _atom_site_fract_y
 _atom_site_fract_z
 _atom_site_occupancy
  Mg  Mg0  1  0.50000000  0.83232000  1.00000000  1
  Ti  Ti1  1  0.00365600  0.64192500  0.58055000  1
  Mn  Mn2  1  0.50000000  0.50000000  0.77241000  1
  V  V3  1  0.48684100  0.47882500  0.55210400  1
  Zn  Zn4  1  1.00000000  0.66768000  0.77241000  1
  Cr  Cr5  1  0.49824300  0.16822300  0.56042800  1
  Fe  Fe6  1  0.00000000  0.33232000  1.00000000  1
  Co  Co7  1  0.00009900  0.48860300  0.66713800  1
  Cu  Cu8  1  0.50096400  0.99594800  0.66171200  1
  Ni  Ni9  1  0.50000000  0.83232000  0.77241000  1
  Sb  Sb10  1  0.00000000  0.00000000  0.00000000  1
  Sb  Sb11  1  0.50000000  1.00000000  0.88621000  1
  Sb  Sb12  1  1.00000000  1.00000000  0.77241000  1
  Sb  Sb13  1  0.00152000  0.99458300  0.54420000  1
  Sb  Sb14  1  0.50000000  0.50000000  1.00000000  1
  Sb  Sb15  1  1.00000000  0.50000000  0.88621000  1
  Sb  Sb16  1  0.50000000  0.33232000  0.88621000  1
  Sb  Sb17  1  0.00000000  0.33232000  0.77241000  1
  Sb  Sb18  1  0.50108700  0.33146800  0.66274700  1
  Sb  Sb19  1  0.98744300  0.34567100  0.54639000  1
  Sb  Sb20  1  1.00000000  0.83232000  0.88621000  1
  Sb  Sb21  1  0.00020700  0.83937900  0.66301900  1
  Sb  Sb22  1  0.50510500  0.83615100  0.54701500  1
  Sb  Sb23  1  0.50000000  0.16768000  1.00000000  1
  Sb  Sb24  1  0.00000000  0.16768000  0.88621000  1
  Sb  Sb25  1  0.50000000  0.16768000  0.77241000  1
  Sb  Sb26  1  0.00176300  0.16391100  0.65768700  1
  Sb  Sb27  1  1.00000000  0.66768000  1.00000000  1
  Sb  Sb28  1  0.50000000  0.66768000  0.88621000  1
  Sb  Sb29  1  0.50071800  0.67472400  0.66211700  1
  Cl  Cl30  1  0.51245400  0.50867300  0.47784500  1
  O  O31  1  0.00000000  0.17164000  0.95506000  1
  O  O32  1  0.50000000  0.17164000  0.84126000  1
  O  O33  1  0.99980400  0.15525700  0.72934800  1
  O  O34  1  0.49610300  0.16744600  0.62153800  1
  O  O35  1  0.50000000  0.17164000  0.93115000  1
  O  O36  1  1.00000000  0.17164000  0.81736000  1
  O  O37  1  0.50082400  0.17256500  0.70658600  1
  O  O38  1  0.99996500  0.16552500  0.58644200  1
  O  O39  1  0.30253000  0.67164000  1.00000000  1
  O  O40  1  0.80253000  0.67164000  0.88621000  1
  O  O41  1  0.30253000  0.67164000  0.77241000  1
  O  O42  1  0.81441300  0.67257000  0.65314300  1
  O  O43  1  0.24745000  0.61405400  0.55198100  1
  O  O44  1  0.69747000  0.67164000  1.00000000  1
  O  O45  1  0.19747000  0.67164000  0.88621000  1
  O  O46  1  0.69747000  0.67164000  0.77241000  1
  O  O47  1  0.18737100  0.67275400  0.65339100  1
  O  O48  1  0.77037900  0.62332800  0.55099700  1
  O  O49  1  0.30253000  0.32836000  1.00000000  1
  O  O50  1  0.80253000  0.32836000  0.88621000  1
  O  O51  1  0.30253000  0.32836000  0.77241000  1
  O  O52  1  0.80737300  0.32297800  0.66451900  1
  O  O53  1  0.31735900  0.32836800  0.55509900  1
  O  O54  1  0.69747000  0.32836000  1.00000000  1
  O  O55  1  0.19747000  0.32836000  0.88621000  1
  O  O56  1  0.69747000  0.32836000  0.77241000  1
  O  O57  1  0.19429100  0.32395900  0.66473700  1
  O  O58  1  0.67378200  0.32945900  0.55641800  1
  O  O59  1  1.00000000  0.82836000  0.95506000  1
  O  O60  1  0.50000000  0.82836000  0.84126000  1
  O  O61  1  0.99978400  0.84468700  0.72933600  1
  O  O62  1  0.50141400  0.82102200  0.61317400  1
  O  O63  1  0.50000000  0.82836000  0.93115000  1
  O  O64  1  1.00000000  0.82836000  0.81736000  1
  O  O65  1  0.50147400  0.83448100  0.70367400  1
  O  O66  1  0.00639500  0.84519800  0.59217400  1
  O  O67  1  1.00000000  0.50000000  0.95668000  1
  O  O68  1  0.50000000  0.50000000  0.84289000  1
  O  O69  1  0.99950800  0.49998000  0.72830400  1
  O  O70  1  0.50256400  0.50427000  0.61795700  1
  O  O71  1  0.50000000  0.50000000  0.92952000  1
  O  O72  1  1.00000000  0.50000000  0.81573000  1
  O  O73  1  0.50118200  0.50115200  0.70351400  1
  O  O74  1  0.99974600  0.45801600  0.60218700  1
  O  O75  1  0.30966000  1.00000000  0.00000000  1
  O  O76  1  0.80966000  1.00000000  0.88621000  1
  O  O77  1  0.30966000  1.00000000  0.77241000  1
  O  O78  1  0.80600600  0.00163100  0.65873200  1
  O  O79  1  0.31568500  0.01215800  0.55062700  1
  O  O80  1  0.69034000  1.00000000  1.00000000  1
  O  O81  1  0.19034000  1.00000000  0.88621000  1
  O  O82  1  0.69034000  1.00000000  0.77241000  1
  O  O83  1  0.19550600  0.00071100  0.65937700  1
  O  O84  1  0.68654900  0.01316500  0.55144700  1
