# generated using pymatgen
data_MgTiMnVZnCrFeCoCuNiSb20ClO54
_symmetry_space_group_name_H-M   'P 1'
_cell_length_a   6.70122500
_cell_length_b   9.44699400
_cell_length_c   29.14528600
_cell_angle_alpha   90.13279500
_cell_angle_beta   89.95432900
_cell_angle_gamma   89.99901500
_symmetry_Int_Tables_number   1
_chemical_formula_structural   MgTiMnVZnCrFeCoCuNiSb20ClO54
_chemical_formula_sum
'Mg1 Ti1 Mn1 V1 Zn1 Cr1 Fe1 Co1 Cu1 Ni1 Sb20 Cl1 O54'
_cell_volume   1845.07853480
_cell_formula_units_Z   1
loop_
 _symmetry_equiv_pos_site_id
 _symmetry_equiv_pos_as_xyz
  1  'x, y, z'
loop_
 _atom_site_type_symbol
 _atom_site_label
 _atom_site_symmetry_multiplicity
 _atom_site_fract_x
 _atom_site_fract_y
 _atom_site_fract_z
 _atom_site_occupancy
  Mg  Mg0  1  0.00073500  0.49524500  0.65687300  1
  Ti  Ti1  1  0.50000000  0.33232000  0.88621000  1
  Mn  Mn2  1  0.50000000  0.66768000  0.88621000  1
  V  V3  1  0.50264400  0.48599000  0.55622700  1
  Zn  Zn4  1  0.00000000  0.83232000  0.88621000  1
  Cr  Cr5  1  0.50000000  0.50000000  0.00000000  1
  Fe  Fe6  1  0.50000000  0.83232000  0.77241000  1
  Co  Co7  1  0.00415400  0.99545500  0.55543700  1
  Cu  Cu8  1  0.50032900  0.32960000  0.65963500  1
  Ni  Ni9  1  0.00000000  1.00000000  0.77241000  1
  Sb  Sb10  1  0.00000000  0.00000000  0.00000000  1
  Sb  Sb11  1  0.50000000  1.00000000  0.88621000  1
  Sb  Sb12  1  0.50042600  0.00160800  0.65781100  1
  Sb  Sb13  1  0.00000000  0.50000000  0.88621000  1
  Sb  Sb14  1  0.50000000  0.50000000  0.77241000  1
  Sb  Sb15  1  0.00000000  0.33232000  0.00000000  1
  Sb  Sb16  1  0.00000000  0.33232000  0.77241000  1
  Sb  Sb17  1  0.00232600  0.32976400  0.54387300  1
  Sb  Sb18  1  0.50000000  0.83232000  0.00000000  1
  Sb  Sb19  1  0.00056900  0.82836500  0.66161800  1
  Sb  Sb20  1  0.50331200  0.80573800  0.53383800  1
  Sb  Sb21  1  0.50000000  0.16768000  0.00000000  1
  Sb  Sb22  1  0.00000000  0.16768000  0.88621000  1
  Sb  Sb23  1  0.50000000  0.16768000  0.77241000  1
  Sb  Sb24  1  0.00060400  0.18282800  0.66039200  1
  Sb  Sb25  1  0.50388400  0.14567100  0.54222800  1
  Sb  Sb26  1  0.00000000  0.66768000  0.00000000  1
  Sb  Sb27  1  0.00000000  0.66768000  0.77241000  1
  Sb  Sb28  1  0.50059300  0.66722900  0.65896000  1
  Sb  Sb29  1  0.00102700  0.67037200  0.54535700  1
  Cl  Cl30  1  0.51199300  0.52327900  0.47597100  1
  O  O31  1  0.00000000  0.17164000  0.95506000  1
  O  O32  1  0.50000000  0.17164000  0.84126000  1
  O  O33  1  0.99980400  0.15525700  0.72934800  1
  O  O34  1  0.50012400  0.14857100  0.61066200  1
  O  O35  1  0.50000000  0.17164000  0.93115000  1
  O  O36  1  0.00000000  0.17164000  0.81736000  1
  O  O37  1  0.50107200  0.16296100  0.70209900  1
  O  O38  1  0.00475300  0.17289700  0.58998200  1
  O  O39  1  0.30253000  0.67164000  0.00000000  1
  O  O40  1  0.80253000  0.67164000  0.88621000  1
  O  O41  1  0.30253000  0.67164000  0.77241000  1
  O  O42  1  0.80289400  0.66914800  0.66063500  1
  O  O43  1  0.31281300  0.64977800  0.55660900  1
  O  O44  1  0.69747000  0.67164000  0.00000000  1
  O  O45  1  0.19747000  0.67164000  0.88621000  1
  O  O46  1  0.69747000  0.67164000  0.77241000  1
  O  O47  1  0.19813900  0.66910500  0.66076000  1
  O  O48  1  0.69120600  0.65108600  0.55854600  1
  O  O49  1  0.30253000  0.32836000  0.00000000  1
  O  O50  1  0.80253000  0.32836000  0.88621000  1
  O  O51  1  0.30253000  0.32836000  0.77241000  1
  O  O52  1  0.79899600  0.33058900  0.66010600  1
  O  O53  1  0.31627800  0.35401600  0.55206000  1
  O  O54  1  0.69747000  0.32836000  0.00000000  1
  O  O55  1  0.19747000  0.32836000  0.88621000  1
  O  O56  1  0.69747000  0.32836000  0.77241000  1
  O  O57  1  0.20203200  0.33060700  0.66044700  1
  O  O58  1  0.68928800  0.35380400  0.55337400  1
  O  O59  1  0.00000000  0.82836000  0.95506000  1
  O  O60  1  0.50000000  0.82836000  0.84126000  1
  O  O61  1  0.99978400  0.84468700  0.72933600  1
  O  O62  1  0.49996900  0.83502000  0.61318100  1
  O  O63  1  0.50000000  0.82836000  0.93115000  1
  O  O64  1  0.00000000  0.82836000  0.81736000  1
  O  O65  1  0.50110900  0.83635200  0.70170100  1
  O  O66  1  0.00403800  0.82514600  0.59300900  1
  O  O67  1  0.00000000  0.50000000  0.95668000  1
  O  O68  1  0.50000000  0.50000000  0.84289000  1
  O  O69  1  0.99950800  0.49998000  0.72830400  1
  O  O70  1  0.49891500  0.49859400  0.61868800  1
  O  O71  1  0.50000000  0.50000000  0.92952000  1
  O  O72  1  0.00000000  0.50000000  0.81573000  1
  O  O73  1  0.50025700  0.50854700  0.70485800  1
  O  O74  1  0.00255700  0.49821100  0.58549600  1
  O  O75  1  0.30966000  0.00000000  1.00000000  1
  O  O76  1  0.80966000  1.00000000  0.88621000  1
  O  O77  1  0.30966000  0.00000000  0.77241000  1
  O  O78  1  0.81097400  0.00126300  0.65739300  1
  O  O79  1  0.28084200  0.98883200  0.54244300  1
  O  O80  1  0.69034000  1.00000000  1.00000000  1
  O  O81  1  0.19034000  0.00000000  0.88621000  1
  O  O82  1  0.69034000  1.00000000  0.77241000  1
  O  O83  1  0.19039400  0.00161200  0.65808500  1
  O  O84  1  0.72782800  0.98966400  0.54276400  1
