# generated using pymatgen
data_MgTiMnVZnCrFeCoCuNiSb20ClO54
_symmetry_space_group_name_H-M   'P 1'
_cell_length_a   6.62607900
_cell_length_b   9.63532600
_cell_length_c   28.51048400
_cell_angle_alpha   90.15353400
_cell_angle_beta   89.90131700
_cell_angle_gamma   89.97996800
_symmetry_Int_Tables_number   1
_chemical_formula_structural   MgTiMnVZnCrFeCoCuNiSb20ClO54
_chemical_formula_sum
'Mg1 Ti1 Mn1 V1 Zn1 Cr1 Fe1 Co1 Cu1 Ni1 Sb20 Cl1 O54'
_cell_volume   1820.22628685
_cell_formula_units_Z   1
loop_
 _symmetry_equiv_pos_site_id
 _symmetry_equiv_pos_as_xyz
  1  'x, y, z'
loop_
 _atom_site_type_symbol
 _atom_site_label
 _atom_site_symmetry_multiplicity
 _atom_site_fract_x
 _atom_site_fract_y
 _atom_site_fract_z
 _atom_site_occupancy
  Mg  Mg0  1  0.00119000  0.65511800  0.44663900  1
  Ti  Ti1  1  0.49972200  0.65731900  0.34136400  1
  Mn  Mn2  1  0.00000000  0.33232000  0.00000000  1
  V  V3  1  0.49875000  0.50960100  0.45846000  1
  Zn  Zn4  1  1.00000000  0.66768000  0.22759000  1
  Cr  Cr5  1  0.50000000  0.66768000  0.11379000  1
  Fe  Fe6  1  1.00000000  0.16768000  0.11379000  1
  Co  Co7  1  0.50000000  0.00000000  0.11379000  1
  Cu  Cu8  1  0.50000000  0.83232000  0.00000000  1
  Ni  Ni9  1  1.00000000  0.66768000  0.00000000  1
  Sb  Sb10  1  0.00000000  0.00000000  0.00000000  1
  Sb  Sb11  1  1.00000000  0.00000000  0.22759000  1
  Sb  Sb12  1  0.49878000  0.99643600  0.34346200  1
  Sb  Sb13  1  0.99899300  0.98266800  0.47957600  1
  Sb  Sb14  1  0.50000000  0.50000000  0.00000000  1
  Sb  Sb15  1  1.00000000  0.50000000  0.11379000  1
  Sb  Sb16  1  0.50000000  0.50000000  0.22759000  1
  Sb  Sb17  1  0.99961600  0.49408100  0.34009700  1
  Sb  Sb18  1  0.50000000  0.33232000  0.11379000  1
  Sb  Sb19  1  0.00000000  0.33232000  0.22759000  1
  Sb  Sb20  1  0.49916500  0.33805800  0.35599300  1
  Sb  Sb21  1  0.99723000  0.35745600  0.46601700  1
  Sb  Sb22  1  1.00000000  0.83232000  0.11379000  1
  Sb  Sb23  1  0.50000000  0.83232000  0.22759000  1
  Sb  Sb24  1  0.00052400  0.83182500  0.34466300  1
  Sb  Sb25  1  0.50403800  0.83853600  0.45973300  1
  Sb  Sb26  1  0.50000000  0.16768000  0.00000000  1
  Sb  Sb27  1  0.50000000  0.16768000  0.22759000  1
  Sb  Sb28  1  0.99664700  0.16996700  0.35538800  1
  Sb  Sb29  1  0.49694700  0.18299400  0.46751700  1
  Cl  Cl30  1  0.49943100  0.43304200  0.53491100  1
  O  O31  1  1.00000000  0.17164000  0.04494000  1
  O  O32  1  0.50000000  0.17164000  0.15874000  1
  O  O33  1  0.00019600  0.15525700  0.27065200  1
  O  O34  1  0.49717200  0.13944000  0.39288900  1
  O  O35  1  0.50000000  0.17164000  0.06885000  1
  O  O36  1  0.00000000  0.17164000  0.18264000  1
  O  O37  1  0.50226800  0.16345800  0.29837000  1
  O  O38  1  0.00468700  0.16342500  0.44383300  1
  O  O39  1  0.69747000  0.67164000  0.00000000  1
  O  O40  1  0.19747000  0.67164000  0.11379000  1
  O  O41  1  0.69747000  0.67164000  0.22759000  1
  O  O42  1  0.20339100  0.64654700  0.34120100  1
  O  O43  1  0.70770300  0.61687000  0.46540800  1
  O  O44  1  0.30253000  0.67164000  0.00000000  1
  O  O45  1  0.80253000  0.67164000  0.11379000  1
  O  O46  1  0.30253000  0.67164000  0.22759000  1
  O  O47  1  0.79810200  0.64903200  0.34043400  1
  O  O48  1  0.29538900  0.62339700  0.46510700  1
  O  O49  1  0.69747000  0.32836000  0.00000000  1
  O  O50  1  0.19747000  0.32836000  0.11379000  1
  O  O51  1  0.69747000  0.32836000  0.22759000  1
  O  O52  1  0.19085300  0.33440100  0.33379000  1
  O  O53  1  0.68668600  0.34502100  0.44238700  1
  O  O54  1  0.30253000  0.32836000  0.00000000  1
  O  O55  1  0.80253000  0.32836000  0.11379000  1
  O  O56  1  0.30253000  0.32836000  0.22759000  1
  O  O57  1  0.80724800  0.33683500  0.33315400  1
  O  O58  1  0.31141900  0.34837600  0.44291200  1
  O  O59  1  1.00000000  0.82836000  0.04494000  1
  O  O60  1  0.50000000  0.82836000  0.15874000  1
  O  O61  1  0.00021600  0.84468700  0.27066400  1
  O  O62  1  0.49836400  0.82690100  0.38642600  1
  O  O63  1  0.50000000  0.82836000  0.06885000  1
  O  O64  1  0.00000000  0.82836000  0.18264000  1
  O  O65  1  0.49736300  0.83268700  0.29827100  1
  O  O66  1  0.99413500  0.84377100  0.42831800  1
  O  O67  1  1.00000000  0.50000000  0.04332000  1
  O  O68  1  0.50000000  0.50000000  0.15711000  1
  O  O69  1  0.00049200  0.49998000  0.27169600  1
  O  O70  1  0.50301400  0.54197800  0.39155100  1
  O  O71  1  0.50000000  0.50000000  0.07048000  1
  O  O72  1  0.00000000  0.50000000  0.18427000  1
  O  O73  1  0.49893000  0.50323000  0.29808700  1
  O  O74  1  0.99971400  0.48586300  0.40896700  1
  O  O75  1  0.69034000  0.00000000  0.00000000  1
  O  O76  1  0.19034000  0.00000000  0.11379000  1
  O  O77  1  0.69034000  0.00000000  0.22759000  1
  O  O78  1  0.20539500  0.00483900  0.33682900  1
  O  O79  1  0.69634600  0.00186200  0.45794600  1
  O  O80  1  0.30966000  0.00000000  0.00000000  1
  O  O81  1  0.80966000  0.00000000  0.11379000  1
  O  O82  1  0.30966000  0.00000000  0.22759000  1
  O  O83  1  0.79231300  0.99991000  0.33673000  1
  O  O84  1  0.30419400  0.99594900  0.45846100  1
