# generated using pymatgen
data_MgTiMnVZnCrFeCoCuNiSb20ClO54
_symmetry_space_group_name_H-M   'P 1'
_cell_length_a   6.65648400
_cell_length_b   9.59322800
_cell_length_c   29.13834900
_cell_angle_alpha   89.71894400
_cell_angle_beta   89.96498100
_cell_angle_gamma   89.97706800
_symmetry_Int_Tables_number   1
_chemical_formula_structural   MgTiMnVZnCrFeCoCuNiSb20ClO54
_chemical_formula_sum
'Mg1 Ti1 Mn1 V1 Zn1 Cr1 Fe1 Co1 Cu1 Ni1 Sb20 Cl1 O54'
_cell_volume   1860.66958671
_cell_formula_units_Z   1
loop_
 _symmetry_equiv_pos_site_id
 _symmetry_equiv_pos_as_xyz
  1  'x, y, z'
loop_
 _atom_site_type_symbol
 _atom_site_label
 _atom_site_symmetry_multiplicity
 _atom_site_fract_x
 _atom_site_fract_y
 _atom_site_fract_z
 _atom_site_occupancy
  Mg  Mg0  1  0.50000000  0.16768000  0.77241000  1
  Ti  Ti1  1  1.00000000  1.00000000  0.77241000  1
  Mn  Mn2  1  0.99856700  0.98881300  0.55201800  1
  V  V3  1  0.49784700  0.48882700  0.55157200  1
  Zn  Zn4  1  0.00000000  0.00000000  0.00000000  1
  Cr  Cr5  1  0.50030100  0.80983400  0.55270300  1
  Fe  Fe6  1  0.50000000  0.50000000  0.77241000  1
  Co  Co7  1  0.50000000  0.66768000  0.88621000  1
  Cu  Cu8  1  0.49964500  0.33306400  0.66596600  1
  Ni  Ni9  1  0.50000000  0.16768000  1.00000000  1
  Sb  Sb10  1  0.50000000  0.00000000  0.88621000  1
  Sb  Sb11  1  0.50022100  0.00991900  0.65746700  1
  Sb  Sb12  1  0.50000000  0.50000000  1.00000000  1
  Sb  Sb13  1  1.00000000  0.50000000  0.88621000  1
  Sb  Sb14  1  0.99715200  0.48940800  0.65390100  1
  Sb  Sb15  1  1.00000000  0.66768000  1.00000000  1
  Sb  Sb16  1  1.00000000  0.66768000  0.77241000  1
  Sb  Sb17  1  0.49986700  0.66194200  0.66111000  1
  Sb  Sb18  1  0.00161400  0.67860400  0.53672100  1
  Sb  Sb19  1  1.00000000  0.16768000  0.88621000  1
  Sb  Sb20  1  0.00049000  0.17272500  0.65839200  1
  Sb  Sb21  1  0.49811100  0.12703800  0.53868600  1
  Sb  Sb22  1  0.50000000  0.83232000  1.00000000  1
  Sb  Sb23  1  1.00000000  0.83232000  0.88621000  1
  Sb  Sb24  1  0.50000000  0.83232000  0.77241000  1
  Sb  Sb25  1  0.00008800  0.83200200  0.65901400  1
  Sb  Sb26  1  1.00000000  0.33232000  1.00000000  1
  Sb  Sb27  1  0.50000000  0.33232000  0.88621000  1
  Sb  Sb28  1  1.00000000  0.33232000  0.77241000  1
  Sb  Sb29  1  0.00056100  0.32749300  0.53652500  1
  Cl  Cl30  1  0.47375200  0.51129900  0.47234600  1
  O  O31  1  1.00000000  0.82836000  0.95506000  1
  O  O32  1  0.50000000  0.82836000  0.84126000  1
  O  O33  1  0.00019600  0.84474300  0.72934800  1
  O  O34  1  0.50139900  0.83272000  0.61706100  1
  O  O35  1  0.50000000  0.82836000  0.93115000  1
  O  O36  1  1.00000000  0.82836000  0.81736000  1
  O  O37  1  0.49825300  0.83797700  0.70266000  1
  O  O38  1  0.99605200  0.81694300  0.59094300  1
  O  O39  1  0.69747000  0.32836000  1.00000000  1
  O  O40  1  0.19747000  0.32836000  0.88621000  1
  O  O41  1  0.69747000  0.32836000  0.77241000  1
  O  O42  1  0.20382800  0.32350900  0.66108900  1
  O  O43  1  0.68911100  0.36247500  0.54835400  1
  O  O44  1  0.30253000  0.32836000  1.00000000  1
  O  O45  1  0.80253000  0.32836000  0.88621000  1
  O  O46  1  0.30253000  0.32836000  0.77241000  1
  O  O47  1  0.79484800  0.32180200  0.66126700  1
  O  O48  1  0.30938500  0.36152200  0.55207700  1
  O  O49  1  0.69747000  0.67164000  1.00000000  1
  O  O50  1  0.19747000  0.67164000  0.88621000  1
  O  O51  1  0.69747000  0.67164000  0.77241000  1
  O  O52  1  0.20145500  0.68069000  0.66470500  1
  O  O53  1  0.68310300  0.66247400  0.54845700  1
  O  O54  1  0.30253000  0.67164000  1.00000000  1
  O  O55  1  0.80253000  0.67164000  0.88621000  1
  O  O56  1  0.30253000  0.67164000  0.77241000  1
  O  O57  1  0.79782000  0.68234200  0.66588800  1
  O  O58  1  0.31571700  0.66203100  0.55252400  1
  O  O59  1  1.00000000  0.17164000  0.95506000  1
  O  O60  1  0.50000000  0.17164000  0.84126000  1
  O  O61  1  0.00021600  0.15531300  0.72933600  1
  O  O62  1  0.50005100  0.14306600  0.60631200  1
  O  O63  1  0.50000000  0.17164000  0.93115000  1
  O  O64  1  1.00000000  0.17164000  0.81736000  1
  O  O65  1  0.49801800  0.15710500  0.70088300  1
  O  O66  1  0.99711100  0.17388200  0.58636000  1
  O  O67  1  1.00000000  0.50000000  0.95668000  1
  O  O68  1  0.50000000  0.50000000  0.84289000  1
  O  O69  1  0.00049200  0.50002000  0.72830400  1
  O  O70  1  0.50872500  0.50842300  0.61645500  1
  O  O71  1  0.50000000  0.50000000  0.92952000  1
  O  O72  1  1.00000000  0.50000000  0.81573000  1
  O  O73  1  0.49984600  0.51356200  0.70641900  1
  O  O74  1  0.99718800  0.50250800  0.57434700  1
  O  O75  1  0.69034000  1.00000000  0.00000000  1
  O  O76  1  0.19034000  0.00000000  0.88621000  1
  O  O77  1  0.69034000  1.00000000  0.77241000  1
  O  O78  1  0.18905700  0.99921700  0.65556800  1
  O  O79  1  0.70450100  0.96650100  0.53949200  1
  O  O80  1  0.30966000  0.00000000  1.00000000  1
  O  O81  1  0.80966000  1.00000000  0.88621000  1
  O  O82  1  0.30966000  0.00000000  0.77241000  1
  O  O83  1  0.81143600  0.99974500  0.65588800  1
  O  O84  1  0.29352900  0.96486400  0.54009600  1
