# generated using pymatgen
data_MgTiMnVZnCrFeCoCuNiSb20ClO54
_symmetry_space_group_name_H-M   'P 1'
_cell_length_a   6.68440800
_cell_length_b   9.49439800
_cell_length_c   29.88447900
_cell_angle_alpha   89.95711800
_cell_angle_beta   89.90700400
_cell_angle_gamma   89.95535800
_symmetry_Int_Tables_number   1
_chemical_formula_structural   MgTiMnVZnCrFeCoCuNiSb20ClO54
_chemical_formula_sum
'Mg1 Ti1 Mn1 V1 Zn1 Cr1 Fe1 Co1 Cu1 Ni1 Sb20 Cl1 O54'
_cell_volume   1896.59782068
_cell_formula_units_Z   1
loop_
 _symmetry_equiv_pos_site_id
 _symmetry_equiv_pos_as_xyz
  1  'x, y, z'
loop_
 _atom_site_type_symbol
 _atom_site_label
 _atom_site_symmetry_multiplicity
 _atom_site_fract_x
 _atom_site_fract_y
 _atom_site_fract_z
 _atom_site_occupancy
  Mg  Mg0  1  0.48551700  0.84496600  0.55804300  1
  Ti  Ti1  1  0.00000000  0.83232000  0.88621000  1
  Mn  Mn2  1  0.50020600  0.65735700  0.66222800  1
  V  V3  1  0.53103300  0.49825100  0.55157100  1
  Zn  Zn4  1  0.50000000  0.50000000  0.77241000  1
  Cr  Cr5  1  0.00083100  0.16670300  0.66215800  1
  Fe  Fe6  1  0.48317600  0.15458800  0.55628600  1
  Co  Co7  1  0.00000000  0.16768000  0.88621000  1
  Cu  Cu8  1  0.50000000  0.83232000  0.00000000  1
  Ni  Ni9  1  0.98647700  0.01500300  0.56399700  1
  Sb  Sb10  1  0.00000000  0.00000000  0.00000000  1
  Sb  Sb11  1  0.50000000  0.00000000  0.88621000  1
  Sb  Sb12  1  0.00000000  0.00000000  0.77241000  1
  Sb  Sb13  1  0.50088800  0.99464300  0.66050300  1
  Sb  Sb14  1  0.50000000  0.50000000  0.00000000  1
  Sb  Sb15  1  0.00000000  0.50000000  0.88621000  1
  Sb  Sb16  1  0.00444500  0.49842200  0.65695100  1
  Sb  Sb17  1  1.00000000  0.33232000  0.00000000  1
  Sb  Sb18  1  0.50000000  0.33232000  0.88621000  1
  Sb  Sb19  1  0.00000000  0.33232000  0.77241000  1
  Sb  Sb20  1  0.50218300  0.34226500  0.66087600  1
  Sb  Sb21  1  0.01644100  0.30401700  0.54743400  1
  Sb  Sb22  1  0.50000000  0.83232000  0.77241000  1
  Sb  Sb23  1  0.99710500  0.83688400  0.64718500  1
  Sb  Sb24  1  0.50000000  0.16768000  0.00000000  1
  Sb  Sb25  1  0.50000000  0.16768000  0.77241000  1
  Sb  Sb26  1  1.00000000  0.66768000  0.00000000  1
  Sb  Sb27  1  0.50000000  0.66768000  0.88621000  1
  Sb  Sb28  1  0.00000000  0.66768000  0.77241000  1
  Sb  Sb29  1  0.04438500  0.64435600  0.53717000  1
  Cl  Cl30  1  0.47344600  0.48026900  0.47707700  1
  O  O31  1  0.00000000  0.17164000  0.95506000  1
  O  O32  1  0.50000000  0.17164000  0.84126000  1
  O  O33  1  0.99980400  0.15525700  0.72934800  1
  O  O34  1  0.50164400  0.16890400  0.62189100  1
  O  O35  1  0.50000000  0.17164000  0.93115000  1
  O  O36  1  0.00000000  0.17164000  0.81736000  1
  O  O37  1  0.50006200  0.16577600  0.70548400  1
  O  O38  1  0.97895300  0.18026000  0.59894900  1
  O  O39  1  0.30253000  0.67164000  1.00000000  1
  O  O40  1  0.80253000  0.67164000  0.88621000  1
  O  O41  1  0.30253000  0.67164000  0.77241000  1
  O  O42  1  0.79612100  0.65169700  0.66011200  1
  O  O43  1  0.33442200  0.65754000  0.55186000  1
  O  O44  1  0.69747000  0.67164000  1.00000000  1
  O  O45  1  0.19747000  0.67164000  0.88621000  1
  O  O46  1  0.69747000  0.67164000  0.77241000  1
  O  O47  1  0.20543700  0.65627400  0.66164500  1
  O  O48  1  0.70342200  0.62522800  0.54980700  1
  O  O49  1  0.30253000  0.32836000  1.00000000  1
  O  O50  1  0.80253000  0.32836000  0.88621000  1
  O  O51  1  0.30253000  0.32836000  0.77241000  1
  O  O52  1  0.81371600  0.33307400  0.66405200  1
  O  O53  1  0.31581500  0.31806100  0.55553400  1
  O  O54  1  0.69747000  0.32836000  1.00000000  1
  O  O55  1  0.19747000  0.32836000  0.88621000  1
  O  O56  1  0.69747000  0.32836000  0.77241000  1
  O  O57  1  0.19040400  0.33073200  0.66399100  1
  O  O58  1  0.67180000  0.34243100  0.55628100  1
  O  O59  1  0.00000000  0.82836000  0.95506000  1
  O  O60  1  0.50000000  0.82836000  0.84126000  1
  O  O61  1  0.99978400  0.84468700  0.72933600  1
  O  O62  1  0.50710800  0.82188600  0.62306400  1
  O  O63  1  0.50000000  0.82836000  0.93115000  1
  O  O64  1  0.00000000  0.82836000  0.81736000  1
  O  O65  1  0.50207700  0.82628800  0.70501800  1
  O  O66  1  0.99076700  0.81446000  0.57259000  1
  O  O67  1  0.00000000  0.50000000  0.95668000  1
  O  O68  1  0.50000000  0.50000000  0.84289000  1
  O  O69  1  0.99950800  0.49998000  0.72830400  1
  O  O70  1  0.49590400  0.50937900  0.61887100  1
  O  O71  1  0.50000000  0.50000000  0.92952000  1
  O  O72  1  0.00000000  0.50000000  0.81573000  1
  O  O73  1  0.49872900  0.50711100  0.70316000  1
  O  O74  1  0.01586500  0.49022200  0.58911900  1
  O  O75  1  0.30966000  0.00000000  1.00000000  1
  O  O76  1  0.80966000  0.00000000  0.88621000  1
  O  O77  1  0.30966000  0.00000000  0.77241000  1
  O  O78  1  0.80118900  0.01372800  0.66383200  1
  O  O79  1  0.28325000  0.02018800  0.55484800  1
  O  O80  1  0.69034000  0.00000000  1.00000000  1
  O  O81  1  0.19034000  0.00000000  0.88621000  1
  O  O82  1  0.69034000  0.00000000  0.77241000  1
  O  O83  1  0.20051300  0.01247900  0.66245800  1
  O  O84  1  0.68113500  0.02007000  0.55314000  1
