# generated using pymatgen
data_MgTiMnVZnCrFeCoCuNiSb20ClO54
_symmetry_space_group_name_H-M   'P 1'
_cell_length_a   6.74465400
_cell_length_b   9.76205800
_cell_length_c   29.42251200
_cell_angle_alpha   90.28150800
_cell_angle_beta   89.73462100
_cell_angle_gamma   89.94325000
_symmetry_Int_Tables_number   1
_chemical_formula_structural   MgTiMnVZnCrFeCoCuNiSb20ClO54
_chemical_formula_sum
'Mg1 Ti1 Mn1 V1 Zn1 Cr1 Fe1 Co1 Cu1 Ni1 Sb20 Cl1 O54'
_cell_volume   1937.18315638
_cell_formula_units_Z   1
loop_
 _symmetry_equiv_pos_site_id
 _symmetry_equiv_pos_as_xyz
  1  'x, y, z'
loop_
 _atom_site_type_symbol
 _atom_site_label
 _atom_site_symmetry_multiplicity
 _atom_site_fract_x
 _atom_site_fract_y
 _atom_site_fract_z
 _atom_site_occupancy
  Mg  Mg0  1  1.00000000  0.33232000  0.00000000  1
  Ti  Ti1  1  0.99064000  0.16883800  0.32964100  1
  Mn  Mn2  1  0.94371200  0.99649700  0.43345800  1
  V  V3  1  0.58571700  0.53932200  0.45305800  1
  Zn  Zn4  1  0.50000000  0.83232000  0.22759000  1
  Cr  Cr5  1  0.43009600  0.89008500  0.44383000  1
  Fe  Fe6  1  0.53938100  0.18992700  0.44543700  1
  Co  Co7  1  1.00000000  0.33232000  0.22759000  1
  Cu  Cu8  1  0.13835200  0.66814300  0.43365700  1
  Ni  Ni9  1  1.00000000  0.00000000  0.22759000  1
  Sb  Sb10  1  0.00000000  0.00000000  0.00000000  1
  Sb  Sb11  1  0.50000000  1.00000000  0.11379000  1
  Sb  Sb12  1  0.49171400  0.00114500  0.33415300  1
  Sb  Sb13  1  0.50000000  0.50000000  0.00000000  1
  Sb  Sb14  1  0.00000000  0.50000000  0.11379000  1
  Sb  Sb15  1  0.50000000  0.50000000  0.22759000  1
  Sb  Sb16  1  0.00017800  0.48773400  0.33926400  1
  Sb  Sb17  1  0.00000000  0.66768000  0.00000000  1
  Sb  Sb18  1  0.50000000  0.66768000  0.11379000  1
  Sb  Sb19  1  1.00000000  0.66768000  0.22759000  1
  Sb  Sb20  1  0.49641300  0.67469900  0.34049300  1
  Sb  Sb21  1  0.50000000  0.16768000  0.00000000  1
  Sb  Sb22  1  1.00000000  0.16768000  0.11379000  1
  Sb  Sb23  1  0.50000000  0.16768000  0.22759000  1
  Sb  Sb24  1  0.50000000  0.83232000  0.00000000  1
  Sb  Sb25  1  1.00000000  0.83232000  0.11379000  1
  Sb  Sb26  1  0.99372900  0.83836800  0.33812900  1
  Sb  Sb27  1  0.50000000  0.33232000  0.11379000  1
  Sb  Sb28  1  0.49151300  0.33246600  0.35199800  1
  Sb  Sb29  1  0.02612500  0.33457600  0.45288800  1
  Cl  Cl30  1  0.45409000  0.50001300  0.52101400  1
  O  O31  1  1.00000000  0.82836000  0.04494000  1
  O  O32  1  0.50000000  0.82836000  0.15874000  1
  O  O33  1  0.99980400  0.84474300  0.27065200  1
  O  O34  1  0.48343700  0.85062000  0.38249500  1
  O  O35  1  0.50000000  0.82836000  0.06885000  1
  O  O36  1  0.00000000  0.82836000  0.18264000  1
  O  O37  1  0.50086400  0.83227000  0.29665500  1
  O  O38  1  0.98300700  0.82373000  0.40516700  1
  O  O39  1  0.30253000  0.32836000  0.00000000  1
  O  O40  1  0.80253000  0.32836000  0.11379000  1
  O  O41  1  0.30253000  0.32836000  0.22759000  1
  O  O42  1  0.80978000  0.32621400  0.33662900  1
  O  O43  1  0.31159900  0.28736600  0.44652000  1
  O  O44  1  0.69747000  0.32836000  0.00000000  1
  O  O45  1  0.19747000  0.32836000  0.11379000  1
  O  O46  1  0.69747000  0.32836000  0.22759000  1
  O  O47  1  0.18119000  0.31809700  0.33614600  1
  O  O48  1  0.67775000  0.37003900  0.44291500  1
  O  O49  1  0.30253000  0.67164000  0.00000000  1
  O  O50  1  0.80253000  0.67164000  0.11379000  1
  O  O51  1  0.30253000  0.67164000  0.22759000  1
  O  O52  1  0.80242800  0.66632100  0.33867600  1
  O  O53  1  0.38831000  0.72457300  0.46071400  1
  O  O54  1  0.69747000  0.67164000  0.00000000  1
  O  O55  1  0.19747000  0.67164000  0.11379000  1
  O  O56  1  0.69747000  0.67164000  0.22759000  1
  O  O57  1  0.19077600  0.67104900  0.33807100  1
  O  O58  1  0.78672900  0.62545500  0.46014000  1
  O  O59  1  1.00000000  0.17164000  0.04494000  1
  O  O60  1  0.50000000  0.17164000  0.15874000  1
  O  O61  1  0.99978400  0.15531300  0.27066400  1
  O  O62  1  0.49495700  0.13965900  0.38201100  1
  O  O63  1  0.50000000  0.17164000  0.06885000  1
  O  O64  1  1.00000000  0.17164000  0.18264000  1
  O  O65  1  0.50023700  0.17464100  0.29765300  1
  O  O66  1  0.94909000  0.17787400  0.41153600  1
  O  O67  1  0.00000000  0.50000000  0.04332000  1
  O  O68  1  0.50000000  0.50000000  0.15711000  1
  O  O69  1  0.99950800  0.50002000  0.27169600  1
  O  O70  1  0.48754600  0.55677500  0.39480100  1
  O  O71  1  0.50000000  0.50000000  0.07048000  1
  O  O72  1  0.00000000  0.50000000  0.18427000  1
  O  O73  1  0.49129400  0.51140000  0.29782800  1
  O  O74  1  0.05274800  0.49049900  0.40659700  1
  O  O75  1  0.30966000  0.00000000  0.00000000  1
  O  O76  1  0.80966000  1.00000000  0.11379000  1
  O  O77  1  0.30966000  0.00000000  0.22759000  1
  O  O78  1  0.79862600  0.00132400  0.34015800  1
  O  O79  1  0.22030300  0.98543800  0.45249000  1
  O  O80  1  0.69034000  1.00000000  0.00000000  1
  O  O81  1  0.19034000  0.00000000  0.11379000  1
  O  O82  1  0.69034000  1.00000000  0.22759000  1
  O  O83  1  0.18650600  0.00402700  0.33956100  1
  O  O84  1  0.65320600  0.99973400  0.45387100  1
