# generated using pymatgen
data_MgTiMnVZnCrFeCoCuNiSb20ClO54
_symmetry_space_group_name_H-M   'P 1'
_cell_length_a   6.61743900
_cell_length_b   9.56093100
_cell_length_c   28.84703800
_cell_angle_alpha   90.12582400
_cell_angle_beta   89.99384200
_cell_angle_gamma   89.96185900
_symmetry_Int_Tables_number   1
_chemical_formula_structural   MgTiMnVZnCrFeCoCuNiSb20ClO54
_chemical_formula_sum
'Mg1 Ti1 Mn1 V1 Zn1 Cr1 Fe1 Co1 Cu1 Ni1 Sb20 Cl1 O54'
_cell_volume   1825.11490240
_cell_formula_units_Z   1
loop_
 _symmetry_equiv_pos_site_id
 _symmetry_equiv_pos_as_xyz
  1  'x, y, z'
loop_
 _atom_site_type_symbol
 _atom_site_label
 _atom_site_symmetry_multiplicity
 _atom_site_fract_x
 _atom_site_fract_y
 _atom_site_fract_z
 _atom_site_occupancy
  Mg  Mg0  1  0.99995600  0.83139600  0.65920000  1
  Ti  Ti1  1  0.00222700  0.00008600  0.57693200  1
  Mn  Mn2  1  0.00000000  0.50000000  0.88621000  1
  V  V3  1  0.50127400  0.49893200  0.54342400  1
  Zn  Zn4  1  0.00041300  0.16488800  0.65990900  1
  Cr  Cr5  1  0.00000000  0.00000000  0.00000000  1
  Fe  Fe6  1  0.50000000  0.50000000  1.00000000  1
  Co  Co7  1  0.50000000  1.00000000  0.88621000  1
  Cu  Cu8  1  0.50000000  0.50000000  0.77241000  1
  Ni  Ni9  1  0.00000000  0.16768000  0.88621000  1
  Sb  Sb10  1  0.00000000  1.00000000  0.77241000  1
  Sb  Sb11  1  0.49986000  0.99955300  0.64894300  1
  Sb  Sb12  1  0.00025100  0.49980700  0.65501800  1
  Sb  Sb13  1  0.00000000  0.33232000  1.00000000  1
  Sb  Sb14  1  0.50000000  0.33232000  0.88621000  1
  Sb  Sb15  1  0.00000000  0.33232000  0.77241000  1
  Sb  Sb16  1  0.50018600  0.33731000  0.65736100  1
  Sb  Sb17  1  0.99992200  0.33005000  0.53719100  1
  Sb  Sb18  1  0.50000000  0.83232000  1.00000000  1
  Sb  Sb19  1  0.00000000  0.83232000  0.88621000  1
  Sb  Sb20  1  0.50000000  0.83232000  0.77241000  1
  Sb  Sb21  1  0.49953400  0.82576800  0.53480000  1
  Sb  Sb22  1  0.50000000  0.16768000  1.00000000  1
  Sb  Sb23  1  0.50000000  0.16768000  0.77241000  1
  Sb  Sb24  1  0.50161900  0.17167500  0.53501100  1
  Sb  Sb25  1  0.00000000  0.66768000  1.00000000  1
  Sb  Sb26  1  0.50000000  0.66768000  0.88621000  1
  Sb  Sb27  1  0.00000000  0.66768000  0.77241000  1
  Sb  Sb28  1  0.50006800  0.66221900  0.65729100  1
  Sb  Sb29  1  0.99887200  0.67107100  0.53764300  1
  Cl  Cl30  1  0.51068200  0.49830000  0.46512600  1
  O  O31  1  1.00000000  0.17164000  0.95506000  1
  O  O32  1  0.50000000  0.17164000  0.84126000  1
  O  O33  1  0.99980400  0.15525700  0.72934800  1
  O  O34  1  0.49842200  0.17097700  0.60740400  1
  O  O35  1  0.50000000  0.17164000  0.93115000  1
  O  O36  1  1.00000000  0.17164000  0.81736000  1
  O  O37  1  0.50011600  0.15727100  0.69940900  1
  O  O38  1  0.00643300  0.19528300  0.58775500  1
  O  O39  1  0.30253000  0.67164000  1.00000000  1
  O  O40  1  0.80253000  0.67164000  0.88621000  1
  O  O41  1  0.30253000  0.67164000  0.77241000  1
  O  O42  1  0.80431900  0.66122900  0.65943700  1
  O  O43  1  0.31443500  0.65204800  0.54690400  1
  O  O44  1  0.69747000  0.67164000  1.00000000  1
  O  O45  1  0.19747000  0.67164000  0.88621000  1
  O  O46  1  0.69747000  0.67164000  0.77241000  1
  O  O47  1  0.19567900  0.66088700  0.65999900  1
  O  O48  1  0.68650100  0.65171500  0.54864300  1
  O  O49  1  0.30253000  0.32836000  1.00000000  1
  O  O50  1  0.80253000  0.32836000  0.88621000  1
  O  O51  1  0.30253000  0.32836000  0.77241000  1
  O  O52  1  0.80443500  0.33933700  0.65866500  1
  O  O53  1  0.31493100  0.34702400  0.54689800  1
  O  O54  1  0.69747000  0.32836000  1.00000000  1
  O  O55  1  0.19747000  0.32836000  0.88621000  1
  O  O56  1  0.69747000  0.32836000  0.77241000  1
  O  O57  1  0.19630400  0.33937100  0.65941900  1
  O  O58  1  0.68650800  0.34511100  0.54858500  1
  O  O59  1  0.00000000  0.82836000  0.95506000  1
  O  O60  1  0.50000000  0.82836000  0.84126000  1
  O  O61  1  0.99978400  0.84468700  0.72933600  1
  O  O62  1  0.50000400  0.82700800  0.60742200  1
  O  O63  1  0.50000000  0.82836000  0.93115000  1
  O  O64  1  1.00000000  0.82836000  0.81736000  1
  O  O65  1  0.50016400  0.84168600  0.69948300  1
  O  O66  1  0.00199700  0.80464400  0.58865400  1
  O  O67  1  0.00000000  0.50000000  0.95668000  1
  O  O68  1  0.50000000  0.50000000  0.84289000  1
  O  O69  1  0.99950800  0.49998000  0.72830400  1
  O  O70  1  0.49833200  0.49986000  0.61190500  1
  O  O71  1  0.50000000  0.50000000  0.92952000  1
  O  O72  1  0.00000000  0.50000000  0.81573000  1
  O  O73  1  0.50107100  0.50055700  0.70247900  1
  O  O74  1  0.00156600  0.50030900  0.58217600  1
  O  O75  1  0.30966000  0.00000000  0.00000000  1
  O  O76  1  0.80966000  1.00000000  0.88621000  1
  O  O77  1  0.30966000  0.00000000  0.77241000  1
  O  O78  1  0.80440700  0.99756500  0.64540300  1
  O  O79  1  0.24725300  0.99614300  0.54441700  1
  O  O80  1  0.69034000  1.00000000  1.00000000  1
  O  O81  1  0.19034000  0.00000000  0.88621000  1
  O  O82  1  0.69034000  1.00000000  0.77241000  1
  O  O83  1  0.19571500  0.99710100  0.64577800  1
  O  O84  1  0.76215800  0.00049300  0.54377600  1
