# generated using pymatgen
data_MgTiMnVZnCrFeCoCuNiSb20ClO54
_symmetry_space_group_name_H-M   'P 1'
_cell_length_a   6.64205600
_cell_length_b   9.51544700
_cell_length_c   28.97893400
_cell_angle_alpha   89.93546400
_cell_angle_beta   89.97009700
_cell_angle_gamma   89.99420900
_symmetry_Int_Tables_number   1
_chemical_formula_structural   MgTiMnVZnCrFeCoCuNiSb20ClO54
_chemical_formula_sum
'Mg1 Ti1 Mn1 V1 Zn1 Cr1 Fe1 Co1 Cu1 Ni1 Sb20 Cl1 O54'
_cell_volume   1831.52898670
_cell_formula_units_Z   1
loop_
 _symmetry_equiv_pos_site_id
 _symmetry_equiv_pos_as_xyz
  1  'x, y, z'
loop_
 _atom_site_type_symbol
 _atom_site_label
 _atom_site_symmetry_multiplicity
 _atom_site_fract_x
 _atom_site_fract_y
 _atom_site_fract_z
 _atom_site_occupancy
  Mg  Mg0  1  0.50000000  0.66768000  0.11379000  1
  Ti  Ti1  1  1.00000000  0.83232000  0.11379000  1
  Mn  Mn2  1  0.50000000  0.16768000  0.00000000  1
  V  V3  1  0.50086000  0.48860100  0.45109600  1
  Zn  Zn4  1  0.50142500  0.32902900  0.33910700  1
  Cr  Cr5  1  0.50000000  0.50000000  0.00000000  1
  Fe  Fe6  1  0.00000000  0.66768000  0.00000000  1
  Co  Co7  1  1.00000000  0.33232000  0.00000000  1
  Cu  Cu8  1  0.50000000  0.16768000  0.22759000  1
  Ni  Ni9  1  0.00302300  0.96762100  0.45356100  1
  Sb  Sb10  1  0.00000000  0.00000000  0.00000000  1
  Sb  Sb11  1  0.50000000  1.00000000  0.11379000  1
  Sb  Sb12  1  1.00000000  1.00000000  0.22759000  1
  Sb  Sb13  1  0.49960100  0.00673000  0.34302000  1
  Sb  Sb14  1  1.00000000  0.50000000  0.11379000  1
  Sb  Sb15  1  0.50000000  0.50000000  0.22759000  1
  Sb  Sb16  1  0.00586100  0.48929000  0.35045800  1
  Sb  Sb17  1  1.00000000  0.66768000  0.22759000  1
  Sb  Sb18  1  0.49972300  0.66976200  0.34413000  1
  Sb  Sb19  1  0.99832700  0.67890800  0.46879400  1
  Sb  Sb20  1  1.00000000  0.16768000  0.11379000  1
  Sb  Sb21  1  0.99931600  0.16876600  0.34735700  1
  Sb  Sb22  1  0.50260600  0.13085300  0.46047900  1
  Sb  Sb23  1  0.50000000  0.83232000  0.00000000  1
  Sb  Sb24  1  0.50000000  0.83232000  0.22759000  1
  Sb  Sb25  1  0.99967400  0.82855600  0.34460400  1
  Sb  Sb26  1  0.50251200  0.80292600  0.48574500  1
  Sb  Sb27  1  0.50000000  0.33232000  0.11379000  1
  Sb  Sb28  1  1.00000000  0.33232000  0.22759000  1
  Sb  Sb29  1  0.99842100  0.32274600  0.46627400  1
  Cl  Cl30  1  0.52448100  0.50309300  0.53198500  1
  O  O31  1  1.00000000  0.82836000  0.04494000  1
  O  O32  1  0.50000000  0.82836000  0.15874000  1
  O  O33  1  0.99980400  0.84474300  0.27065200  1
  O  O34  1  0.49871600  0.83834200  0.38416800  1
  O  O35  1  0.50000000  0.82836000  0.06885000  1
  O  O36  1  1.00000000  0.82836000  0.18264000  1
  O  O37  1  0.50324200  0.83569100  0.29657500  1
  O  O38  1  0.00633500  0.80767600  0.41156800  1
  O  O39  1  0.30253000  0.32836000  0.00000000  1
  O  O40  1  0.80253000  0.32836000  0.11379000  1
  O  O41  1  0.30253000  0.32836000  0.22759000  1
  O  O42  1  0.80289900  0.32224400  0.34168200  1
  O  O43  1  0.31163900  0.36118400  0.45450200  1
  O  O44  1  0.69747000  0.32836000  0.00000000  1
  O  O45  1  0.19747000  0.32836000  0.11379000  1
  O  O46  1  0.69747000  0.32836000  0.22759000  1
  O  O47  1  0.19993400  0.31802300  0.33977200  1
  O  O48  1  0.68979500  0.36076000  0.44987000  1
  O  O49  1  0.30253000  0.67164000  0.00000000  1
  O  O50  1  0.80253000  0.67164000  0.11379000  1
  O  O51  1  0.30253000  0.67164000  0.22759000  1
  O  O52  1  0.79533200  0.67921300  0.33358900  1
  O  O53  1  0.31461000  0.65797400  0.45483100  1
  O  O54  1  0.69747000  0.67164000  0.00000000  1
  O  O55  1  0.19747000  0.67164000  0.11379000  1
  O  O56  1  0.69747000  0.67164000  0.22759000  1
  O  O57  1  0.20537200  0.68256500  0.33167100  1
  O  O58  1  0.68448800  0.65967600  0.45150400  1
  O  O59  1  1.00000000  0.17164000  0.04494000  1
  O  O60  1  0.50000000  0.17164000  0.15874000  1
  O  O61  1  0.99978400  0.15531300  0.27066400  1
  O  O62  1  0.49730300  0.15145800  0.39181400  1
  O  O63  1  0.50000000  0.17164000  0.06885000  1
  O  O64  1  1.00000000  0.17164000  0.18264000  1
  O  O65  1  0.50558300  0.15484500  0.29826700  1
  O  O66  1  0.00399700  0.16889200  0.41700700  1
  O  O67  1  1.00000000  0.50000000  0.04332000  1
  O  O68  1  0.50000000  0.50000000  0.15711000  1
  O  O69  1  0.99950800  0.50002000  0.27169600  1
  O  O70  1  0.48942500  0.50659500  0.38550000  1
  O  O71  1  0.50000000  0.50000000  0.07048000  1
  O  O72  1  1.00000000  0.50000000  0.18427000  1
  O  O73  1  0.49999300  0.51257800  0.29700800  1
  O  O74  1  0.00286600  0.50077300  0.42871500  1
  O  O75  1  0.30966000  0.00000000  1.00000000  1
  O  O76  1  0.80966000  1.00000000  0.11379000  1
  O  O77  1  0.30966000  1.00000000  0.22759000  1
  O  O78  1  0.81125800  0.99846000  0.34423800  1
  O  O79  1  0.29813100  0.96826300  0.46257300  1
  O  O80  1  0.69034000  0.00000000  1.00000000  1
  O  O81  1  0.19034000  1.00000000  0.11379000  1
  O  O82  1  0.69034000  1.00000000  0.22759000  1
  O  O83  1  0.18826000  0.99874100  0.34374800  1
  O  O84  1  0.70804900  0.96975400  0.46170400  1
