# generated using pymatgen
data_MgTiMnVZnCrFeCoCuNiSb20ClO54
_symmetry_space_group_name_H-M   'P 1'
_cell_length_a   6.73902800
_cell_length_b   9.60217100
_cell_length_c   29.19538900
_cell_angle_alpha   90.49381000
_cell_angle_beta   89.98986000
_cell_angle_gamma   89.99717900
_symmetry_Int_Tables_number   1
_chemical_formula_structural   MgTiMnVZnCrFeCoCuNiSb20ClO54
_chemical_formula_sum
'Mg1 Ti1 Mn1 V1 Zn1 Cr1 Fe1 Co1 Cu1 Ni1 Sb20 Cl1 O54'
_cell_volume   1889.14296555
_cell_formula_units_Z   1
loop_
 _symmetry_equiv_pos_site_id
 _symmetry_equiv_pos_as_xyz
  1  'x, y, z'
loop_
 _atom_site_type_symbol
 _atom_site_label
 _atom_site_symmetry_multiplicity
 _atom_site_fract_x
 _atom_site_fract_y
 _atom_site_fract_z
 _atom_site_occupancy
  Mg  Mg0  1  0.50000000  0.50000000  0.77241000  1
  Ti  Ti1  1  0.50517500  0.17368500  0.55077000  1
  Mn  Mn2  1  0.99888100  0.49796600  0.66712100  1
  V  V3  1  0.49403800  0.50041300  0.54447400  1
  Zn  Zn4  1  0.50000000  0.33232000  0.88621000  1
  Cr  Cr5  1  1.00000000  0.33232000  1.00000000  1
  Fe  Fe6  1  0.50773800  0.89535700  0.54929100  1
  Co  Co7  1  1.00000000  0.33232000  0.77241000  1
  Cu  Cu8  1  0.00659500  0.01202900  0.54781000  1
  Ni  Ni9  1  0.00000000  0.66768000  0.77241000  1
  Sb  Sb10  1  0.00000000  0.00000000  0.00000000  1
  Sb  Sb11  1  0.50000000  1.00000000  0.88621000  1
  Sb  Sb12  1  1.00000000  1.00000000  0.77241000  1
  Sb  Sb13  1  0.49965200  0.99360300  0.65547500  1
  Sb  Sb14  1  0.50000000  0.50000000  1.00000000  1
  Sb  Sb15  1  1.00000000  0.50000000  0.88621000  1
  Sb  Sb16  1  0.00000000  0.66768000  1.00000000  1
  Sb  Sb17  1  0.50000000  0.66768000  0.88621000  1
  Sb  Sb18  1  0.49936500  0.65732800  0.65733500  1
  Sb  Sb19  1  0.98905800  0.65632200  0.54811000  1
  Sb  Sb20  1  0.50000000  0.16768000  1.00000000  1
  Sb  Sb21  1  1.00000000  0.16768000  0.88621000  1
  Sb  Sb22  1  0.50000000  0.16768000  0.77241000  1
  Sb  Sb23  1  0.00029900  0.17216200  0.66051700  1
  Sb  Sb24  1  0.50000000  0.83232000  1.00000000  1
  Sb  Sb25  1  1.00000000  0.83232000  0.88621000  1
  Sb  Sb26  1  0.50000000  0.83232000  0.77241000  1
  Sb  Sb27  1  0.99914000  0.82380200  0.65907800  1
  Sb  Sb28  1  0.50014100  0.33500900  0.66229700  1
  Sb  Sb29  1  0.00020100  0.32966300  0.54711400  1
  Cl  Cl30  1  0.49609000  0.48469500  0.46850200  1
  O  O31  1  1.00000000  0.82836000  0.95506000  1
  O  O32  1  0.50000000  0.82836000  0.84126000  1
  O  O33  1  0.00019600  0.84474300  0.72934800  1
  O  O34  1  0.49863400  0.82928100  0.61216800  1
  O  O35  1  0.50000000  0.82836000  0.93115000  1
  O  O36  1  0.00000000  0.82836000  0.81736000  1
  O  O37  1  0.49857200  0.83771600  0.70152700  1
  O  O38  1  0.99445200  0.82342100  0.58945200  1
  O  O39  1  0.69747000  0.32836000  1.00000000  1
  O  O40  1  0.19747000  0.32836000  0.88621000  1
  O  O41  1  0.69747000  0.32836000  0.77241000  1
  O  O42  1  0.19964000  0.32841100  0.66303300  1
  O  O43  1  0.68195700  0.33072700  0.54823000  1
  O  O44  1  0.30253000  0.32836000  1.00000000  1
  O  O45  1  0.80253000  0.32836000  0.88621000  1
  O  O46  1  0.30253000  0.32836000  0.77241000  1
  O  O47  1  0.80083100  0.32793600  0.66316700  1
  O  O48  1  0.32375100  0.33126900  0.54966400  1
  O  O49  1  0.69747000  0.67164000  1.00000000  1
  O  O50  1  0.19747000  0.67164000  0.88621000  1
  O  O51  1  0.69747000  0.67164000  0.77241000  1
  O  O52  1  0.19612000  0.66578500  0.66001200  1
  O  O53  1  0.68084700  0.62596400  0.55129700  1
  O  O54  1  0.30253000  0.67164000  1.00000000  1
  O  O55  1  0.80253000  0.67164000  0.88621000  1
  O  O56  1  0.30253000  0.67164000  0.77241000  1
  O  O57  1  0.80209900  0.66637500  0.66029600  1
  O  O58  1  0.30620300  0.61781800  0.55133900  1
  O  O59  1  1.00000000  0.17164000  0.95506000  1
  O  O60  1  0.50000000  0.17164000  0.84126000  1
  O  O61  1  0.00021600  0.15531300  0.72933600  1
  O  O62  1  0.50246900  0.16790200  0.61630500  1
  O  O63  1  0.50000000  0.17164000  0.93115000  1
  O  O64  1  0.00000000  0.17164000  0.81736000  1
  O  O65  1  0.49897100  0.15425300  0.70231500  1
  O  O66  1  0.00324600  0.17618500  0.59284800  1
  O  O67  1  1.00000000  0.50000000  0.95668000  1
  O  O68  1  0.50000000  0.50000000  0.84289000  1
  O  O69  1  0.00049200  0.50002000  0.72830400  1
  O  O70  1  0.50291700  0.48610100  0.61521700  1
  O  O71  1  0.50000000  0.50000000  0.92952000  1
  O  O72  1  0.00000000  0.50000000  0.81573000  1
  O  O73  1  0.49993000  0.50129400  0.70267200  1
  O  O74  1  0.99468000  0.49289500  0.59379400  1
  O  O75  1  0.69034000  0.00000000  0.00000000  1
  O  O76  1  0.19034000  1.00000000  0.88621000  1
  O  O77  1  0.69034000  1.00000000  0.77241000  1
  O  O78  1  0.19266000  0.99789700  0.65682300  1
  O  O79  1  0.70741000  0.03175500  0.53868800  1
  O  O80  1  0.30966000  0.00000000  0.00000000  1
  O  O81  1  0.80966000  1.00000000  0.88621000  1
  O  O82  1  0.30966000  1.00000000  0.77241000  1
  O  O83  1  0.80671300  0.99818700  0.65713400  1
  O  O84  1  0.30453900  0.03033900  0.53851800  1
