# generated using pymatgen
data_MgTiMnVZnCrFeCoCuNiSb20ClO54
_symmetry_space_group_name_H-M   'P 1'
_cell_length_a   6.63665700
_cell_length_b   9.60331800
_cell_length_c   29.32235900
_cell_angle_alpha   90.19355000
_cell_angle_beta   89.95230200
_cell_angle_gamma   89.99824600
_symmetry_Int_Tables_number   1
_chemical_formula_structural   MgTiMnVZnCrFeCoCuNiSb20ClO54
_chemical_formula_sum
'Mg1 Ti1 Mn1 V1 Zn1 Cr1 Fe1 Co1 Cu1 Ni1 Sb20 Cl1 O54'
_cell_volume   1868.81779474
_cell_formula_units_Z   1
loop_
 _symmetry_equiv_pos_site_id
 _symmetry_equiv_pos_as_xyz
  1  'x, y, z'
loop_
 _atom_site_type_symbol
 _atom_site_label
 _atom_site_symmetry_multiplicity
 _atom_site_fract_x
 _atom_site_fract_y
 _atom_site_fract_z
 _atom_site_occupancy
  Mg  Mg0  1  0.50000000  0.50000000  0.22759000  1
  Ti  Ti1  1  0.50000000  0.00000000  0.11379000  1
  Mn  Mn2  1  0.99988700  0.16168200  0.33710000  1
  V  V3  1  0.49911900  0.51242200  0.45474100  1
  Zn  Zn4  1  0.00008800  0.84359100  0.33720200  1
  Cr  Cr5  1  0.99870300  0.66170300  0.44362200  1
  Fe  Fe6  1  0.50000000  0.50000000  1.00000000  1
  Co  Co7  1  0.99679300  0.99610800  0.42700800  1
  Cu  Cu8  1  0.00000000  0.00000000  0.00000000  1
  Ni  Ni9  1  1.00000000  0.00000000  0.22759000  1
  Sb  Sb10  1  0.49989700  0.00494600  0.34456500  1
  Sb  Sb11  1  1.00000000  0.50000000  0.11379000  1
  Sb  Sb12  1  0.99897700  0.50215900  0.34202300  1
  Sb  Sb13  1  0.00000000  0.33232000  1.00000000  1
  Sb  Sb14  1  0.50000000  0.33232000  0.11379000  1
  Sb  Sb15  1  1.00000000  0.33232000  0.22759000  1
  Sb  Sb16  1  0.49917400  0.34220800  0.34231600  1
  Sb  Sb17  1  0.99892300  0.32379700  0.45416200  1
  Sb  Sb18  1  0.50000000  0.83232000  1.00000000  1
  Sb  Sb19  1  1.00000000  0.83232000  0.11379000  1
  Sb  Sb20  1  0.50000000  0.83232000  0.22759000  1
  Sb  Sb21  1  0.49571300  0.85119500  0.45619700  1
  Sb  Sb22  1  0.50000000  0.16768000  1.00000000  1
  Sb  Sb23  1  1.00000000  0.16768000  0.11379000  1
  Sb  Sb24  1  0.50000000  0.16768000  0.22759000  1
  Sb  Sb25  1  0.49797500  0.18416400  0.45893900  1
  Sb  Sb26  1  0.00000000  0.66768000  1.00000000  1
  Sb  Sb27  1  0.50000000  0.66768000  0.11379000  1
  Sb  Sb28  1  0.00000000  0.66768000  0.22759000  1
  Sb  Sb29  1  0.49945000  0.66384100  0.33971500  1
  Cl  Cl30  1  0.49672400  0.47905100  0.53036300  1
  O  O31  1  1.00000000  0.17164000  0.04494000  1
  O  O32  1  0.50000000  0.17164000  0.15874000  1
  O  O33  1  0.00019600  0.15525700  0.27065200  1
  O  O34  1  0.49878500  0.17868700  0.38671700  1
  O  O35  1  0.50000000  0.17164000  0.06885000  1
  O  O36  1  1.00000000  0.17164000  0.18264000  1
  O  O37  1  0.49927700  0.17308500  0.29786400  1
  O  O38  1  0.99800100  0.18050500  0.40572100  1
  O  O39  1  0.69747000  0.67164000  1.00000000  1
  O  O40  1  0.19747000  0.67164000  0.11379000  1
  O  O41  1  0.69747000  0.67164000  0.22759000  1
  O  O42  1  0.19638300  0.66213000  0.33976000  1
  O  O43  1  0.71507200  0.63581700  0.45454800  1
  O  O44  1  0.30253000  0.67164000  1.00000000  1
  O  O45  1  0.80253000  0.67164000  0.11379000  1
  O  O46  1  0.30253000  0.67164000  0.22759000  1
  O  O47  1  0.80247300  0.66236600  0.33978100  1
  O  O48  1  0.28222000  0.63573400  0.45448400  1
  O  O49  1  0.69747000  0.32836000  1.00000000  1
  O  O50  1  0.19747000  0.32836000  0.11379000  1
  O  O51  1  0.69747000  0.32836000  0.22759000  1
  O  O52  1  0.19476100  0.34011700  0.33848600  1
  O  O53  1  0.68311100  0.35630600  0.44529300  1
  O  O54  1  0.30253000  0.32836000  1.00000000  1
  O  O55  1  0.80253000  0.32836000  0.11379000  1
  O  O56  1  0.30253000  0.32836000  0.22759000  1
  O  O57  1  0.80383900  0.33972100  0.33821900  1
  O  O58  1  0.31423100  0.35644700  0.44492100  1
  O  O59  1  1.00000000  0.82836000  0.04494000  1
  O  O60  1  0.50000000  0.82836000  0.15874000  1
  O  O61  1  0.00021600  0.84468700  0.27066400  1
  O  O62  1  0.49929300  0.82391000  0.38609500  1
  O  O63  1  0.50000000  0.82836000  0.06885000  1
  O  O64  1  1.00000000  0.82836000  0.18264000  1
  O  O65  1  0.49982400  0.83219500  0.29761500  1
  O  O66  1  0.99924400  0.81242300  0.41231500  1
  O  O67  1  1.00000000  0.50000000  0.04332000  1
  O  O68  1  0.50000000  0.50000000  0.15711000  1
  O  O69  1  0.00049200  0.49998000  0.27169600  1
  O  O70  1  0.50002200  0.50981400  0.38531400  1
  O  O71  1  0.50000000  0.50000000  0.07048000  1
  O  O72  1  1.00000000  0.50000000  0.18427000  1
  O  O73  1  0.49945800  0.50095700  0.29668400  1
  O  O74  1  0.99835800  0.49384400  0.41048600  1
  O  O75  1  0.69034000  0.00000000  1.00000000  1
  O  O76  1  0.19034000  0.00000000  0.11379000  1
  O  O77  1  0.69034000  0.00000000  0.22759000  1
  O  O78  1  0.20390500  0.00768700  0.34288100  1
  O  O79  1  0.71387500  0.00312100  0.44308300  1
  O  O80  1  0.30966000  0.00000000  1.00000000  1
  O  O81  1  0.80966000  0.00000000  0.11379000  1
  O  O82  1  0.30966000  0.00000000  0.22759000  1
  O  O83  1  0.79594500  0.00768700  0.34289900  1
  O  O84  1  0.27843800  0.00415100  0.44335100  1
