# generated using pymatgen
data_MgTiMnVZnCrFeCoCuNiSb20ClO54
_symmetry_space_group_name_H-M   'P 1'
_cell_length_a   6.72309300
_cell_length_b   9.62790200
_cell_length_c   29.20263700
_cell_angle_alpha   90.15822100
_cell_angle_beta   89.87641300
_cell_angle_gamma   89.93240700
_symmetry_Int_Tables_number   1
_chemical_formula_structural   MgTiMnVZnCrFeCoCuNiSb20ClO54
_chemical_formula_sum
'Mg1 Ti1 Mn1 V1 Zn1 Cr1 Fe1 Co1 Cu1 Ni1 Sb20 Cl1 O54'
_cell_volume   1890.25274950
_cell_formula_units_Z   1
loop_
 _symmetry_equiv_pos_site_id
 _symmetry_equiv_pos_as_xyz
  1  'x, y, z'
loop_
 _atom_site_type_symbol
 _atom_site_label
 _atom_site_symmetry_multiplicity
 _atom_site_fract_x
 _atom_site_fract_y
 _atom_site_fract_z
 _atom_site_occupancy
  Mg  Mg0  1  0.50000000  1.00000000  0.11379000  1
  Ti  Ti1  1  0.50939300  0.79401900  0.44221800  1
  Mn  Mn2  1  0.99856000  0.51866600  0.33596800  1
  V  V3  1  0.47795000  0.49687400  0.44698000  1
  Zn  Zn4  1  1.00000000  0.66768000  0.22759000  1
  Cr  Cr5  1  0.46913800  0.67166000  0.33616300  1
  Fe  Fe6  1  0.00000000  0.66768000  0.00000000  1
  Co  Co7  1  0.00582900  0.83146800  0.33582800  1
  Cu  Cu8  1  1.00000000  0.33232000  0.00000000  1
  Ni  Ni9  1  0.00410400  0.67806400  0.43923100  1
  Sb  Sb10  1  0.00000000  0.00000000  0.00000000  1
  Sb  Sb11  1  0.00000000  0.00000000  0.22759000  1
  Sb  Sb12  1  0.49984900  0.99618100  0.34050000  1
  Sb  Sb13  1  0.00538000  0.93991800  0.45760600  1
  Sb  Sb14  1  0.50000000  0.50000000  0.00000000  1
  Sb  Sb15  1  0.00000000  0.50000000  0.11379000  1
  Sb  Sb16  1  0.50000000  0.50000000  0.22759000  1
  Sb  Sb17  1  0.50000000  0.66768000  0.11379000  1
  Sb  Sb18  1  0.50000000  0.16768000  0.00000000  1
  Sb  Sb19  1  0.00000000  0.16768000  0.11379000  1
  Sb  Sb20  1  0.50000000  0.16768000  0.22759000  1
  Sb  Sb21  1  0.00074900  0.17112200  0.34444800  1
  Sb  Sb22  1  0.50325100  0.12486000  0.45806100  1
  Sb  Sb23  1  0.50000000  0.83232000  0.00000000  1
  Sb  Sb24  1  0.00000000  0.83232000  0.11379000  1
  Sb  Sb25  1  0.50000000  0.83232000  0.22759000  1
  Sb  Sb26  1  0.50000000  0.33232000  0.11379000  1
  Sb  Sb27  1  0.00000000  0.33232000  0.22759000  1
  Sb  Sb28  1  0.50286100  0.35219400  0.34808400  1
  Sb  Sb29  1  0.97359000  0.36644600  0.44732300  1
  Cl  Cl30  1  0.53478700  0.49200100  0.52287300  1
  O  O31  1  0.00000000  0.82836000  0.04494000  1
  O  O32  1  0.50000000  0.82836000  0.15874000  1
  O  O33  1  0.99980400  0.84474300  0.27065200  1
  O  O34  1  0.49013300  0.82520900  0.37900400  1
  O  O35  1  0.50000000  0.82836000  0.06885000  1
  O  O36  1  1.00000000  0.82836000  0.18264000  1
  O  O37  1  0.50198300  0.83697900  0.29559900  1
  O  O38  1  0.02575900  0.83605500  0.39968800  1
  O  O39  1  0.30253000  0.32836000  0.00000000  1
  O  O40  1  0.80253000  0.32836000  0.11379000  1
  O  O41  1  0.30253000  0.32836000  0.22759000  1
  O  O42  1  0.82043300  0.34071500  0.33670300  1
  O  O43  1  0.30381700  0.36888500  0.44458500  1
  O  O44  1  0.69747000  0.32836000  0.00000000  1
  O  O45  1  0.19747000  0.32836000  0.11379000  1
  O  O46  1  0.69747000  0.32836000  0.22759000  1
  O  O47  1  0.18813300  0.33346500  0.33717400  1
  O  O48  1  0.67124700  0.37225500  0.43361800  1
  O  O49  1  0.30253000  0.67164000  0.00000000  1
  O  O50  1  0.80253000  0.67164000  0.11379000  1
  O  O51  1  0.30253000  0.67164000  0.22759000  1
  O  O52  1  0.82931300  0.67095600  0.33521100  1
  O  O53  1  0.30745800  0.66291600  0.45368000  1
  O  O54  1  0.69747000  0.67164000  0.00000000  1
  O  O55  1  0.19747000  0.67164000  0.11379000  1
  O  O56  1  0.69747000  0.67164000  0.22759000  1
  O  O57  1  0.19329400  0.67618800  0.33006200  1
  O  O58  1  0.71288600  0.67514500  0.44881700  1
  O  O59  1  0.00000000  0.17164000  0.04494000  1
  O  O60  1  0.50000000  0.17164000  0.15874000  1
  O  O61  1  0.99978400  0.15531300  0.27066400  1
  O  O62  1  0.48671500  0.13839100  0.38945400  1
  O  O63  1  0.50000000  0.17164000  0.06885000  1
  O  O64  1  0.00000000  0.17164000  0.18264000  1
  O  O65  1  0.50341400  0.16157200  0.29670100  1
  O  O66  1  0.99372500  0.17813300  0.41303300  1
  O  O67  1  0.00000000  0.50000000  0.04332000  1
  O  O68  1  0.50000000  0.50000000  0.15711000  1
  O  O69  1  0.99950800  0.50002000  0.27169600  1
  O  O70  1  0.47785300  0.54385200  0.38366400  1
  O  O71  1  0.50000000  0.50000000  0.07048000  1
  O  O72  1  0.00000000  0.50000000  0.18427000  1
  O  O73  1  0.49584000  0.50762300  0.29727600  1
  O  O74  1  0.01215600  0.50987100  0.40028300  1
  O  O75  1  0.30966000  0.00000000  0.00000000  1
  O  O76  1  0.80966000  1.00000000  0.11379000  1
  O  O77  1  0.30966000  0.00000000  0.22759000  1
  O  O78  1  0.80616400  0.00233600  0.34025700  1
  O  O79  1  0.32312800  0.95691700  0.45988100  1
  O  O80  1  0.69034000  1.00000000  0.00000000  1
  O  O81  1  0.19034000  0.00000000  0.11379000  1
  O  O82  1  0.69034000  1.00000000  0.22759000  1
  O  O83  1  0.19178000  0.00297600  0.33782300  1
  O  O84  1  0.68579300  0.95831400  0.45353800  1
