# generated using pymatgen
data_MgTiMnVZnCrFeCoCuNiSb20ClO54
_symmetry_space_group_name_H-M   'P 1'
_cell_length_a   6.68846800
_cell_length_b   9.70246200
_cell_length_c   28.94376400
_cell_angle_alpha   89.86868000
_cell_angle_beta   89.99319700
_cell_angle_gamma   89.99587800
_symmetry_Int_Tables_number   1
_chemical_formula_structural   MgTiMnVZnCrFeCoCuNiSb20ClO54
_chemical_formula_sum
'Mg1 Ti1 Mn1 V1 Zn1 Cr1 Fe1 Co1 Cu1 Ni1 Sb20 Cl1 O54'
_cell_volume   1878.28922704
_cell_formula_units_Z   1
loop_
 _symmetry_equiv_pos_site_id
 _symmetry_equiv_pos_as_xyz
  1  'x, y, z'
loop_
 _atom_site_type_symbol
 _atom_site_label
 _atom_site_symmetry_multiplicity
 _atom_site_fract_x
 _atom_site_fract_y
 _atom_site_fract_z
 _atom_site_occupancy
  Mg  Mg0  1  0.00000000  0.00000000  0.00000000  1
  Ti  Ti1  1  0.50000000  0.33232000  0.88621000  1
  Mn  Mn2  1  0.50000000  0.50000000  1.00000000  1
  V  V3  1  0.50177700  0.52053400  0.54818000  1
  Zn  Zn4  1  0.50000000  0.66768000  0.88621000  1
  Cr  Cr5  1  0.00225800  0.65185700  0.55085000  1
  Fe  Fe6  1  0.00249200  0.00015700  0.55483900  1
  Co  Co7  1  0.50000000  0.83232000  1.00000000  1
  Cu  Cu8  1  0.50072200  0.66968200  0.65662400  1
  Ni  Ni9  1  1.00000000  0.66768000  1.00000000  1
  Sb  Sb10  1  0.50000000  0.00000000  0.88621000  1
  Sb  Sb11  1  1.00000000  0.00000000  0.77241000  1
  Sb  Sb12  1  0.50048500  0.99062500  0.65433800  1
  Sb  Sb13  1  1.00000000  0.50000000  0.88621000  1
  Sb  Sb14  1  0.50000000  0.50000000  0.77241000  1
  Sb  Sb15  1  0.00057800  0.50899700  0.65697400  1
  Sb  Sb16  1  1.00000000  0.33232000  1.00000000  1
  Sb  Sb17  1  1.00000000  0.33232000  0.77241000  1
  Sb  Sb18  1  0.50009800  0.34688600  0.65342400  1
  Sb  Sb19  1  0.00010400  0.36287800  0.53150500  1
  Sb  Sb20  1  1.00000000  0.83232000  0.88621000  1
  Sb  Sb21  1  0.50000000  0.83232000  0.77241000  1
  Sb  Sb22  1  0.00152500  0.82655700  0.65418900  1
  Sb  Sb23  1  0.50153800  0.85342800  0.53979000  1
  Sb  Sb24  1  0.50000000  0.16768000  1.00000000  1
  Sb  Sb25  1  1.00000000  0.16768000  0.88621000  1
  Sb  Sb26  1  0.50000000  0.16768000  0.77241000  1
  Sb  Sb27  1  0.99989900  0.17106400  0.64492100  1
  Sb  Sb28  1  0.50169800  0.19809200  0.53596900  1
  Sb  Sb29  1  1.00000000  0.66768000  0.77241000  1
  Cl  Cl30  1  0.50846100  0.47374800  0.46873500  1
  O  O31  1  1.00000000  0.17164000  0.95506000  1
  O  O32  1  0.50000000  0.17164000  0.84126000  1
  O  O33  1  0.99980400  0.15525700  0.72934800  1
  O  O34  1  0.50000300  0.16445800  0.61001800  1
  O  O35  1  0.50000000  0.17164000  0.93115000  1
  O  O36  1  1.00000000  0.17164000  0.81736000  1
  O  O37  1  0.50119900  0.16252500  0.69915000  1
  O  O38  1  0.00261900  0.19172500  0.57008200  1
  O  O39  1  0.30253000  0.67164000  1.00000000  1
  O  O40  1  0.80253000  0.67164000  0.88621000  1
  O  O41  1  0.30253000  0.67164000  0.77241000  1
  O  O42  1  0.80486800  0.66798600  0.65936200  1
  O  O43  1  0.29229700  0.63726800  0.54328100  1
  O  O44  1  0.69747000  0.67164000  1.00000000  1
  O  O45  1  0.19747000  0.67164000  0.88621000  1
  O  O46  1  0.69747000  0.67164000  0.77241000  1
  O  O47  1  0.19683900  0.66744700  0.66000200  1
  O  O48  1  0.71176100  0.63756000  0.54420200  1
  O  O49  1  0.30253000  0.32836000  1.00000000  1
  O  O50  1  0.80253000  0.32836000  0.88621000  1
  O  O51  1  0.30253000  0.32836000  0.77241000  1
  O  O52  1  0.80661800  0.35121100  0.66020600  1
  O  O53  1  0.31070700  0.35734900  0.55150900  1
  O  O54  1  0.69747000  0.32836000  1.00000000  1
  O  O55  1  0.19747000  0.32836000  0.88621000  1
  O  O56  1  0.69747000  0.32836000  0.77241000  1
  O  O57  1  0.19333000  0.35022400  0.66061100  1
  O  O58  1  0.69129900  0.35720700  0.55296400  1
  O  O59  1  1.00000000  0.82836000  0.95506000  1
  O  O60  1  0.50000000  0.82836000  0.84126000  1
  O  O61  1  0.99978400  0.84468700  0.72933600  1
  O  O62  1  0.49828800  0.83634000  0.60933200  1
  O  O63  1  0.50000000  0.82836000  0.93115000  1
  O  O64  1  1.00000000  0.82836000  0.81736000  1
  O  O65  1  0.50004200  0.83678700  0.70330600  1
  O  O66  1  0.00675000  0.82446000  0.58447600  1
  O  O67  1  1.00000000  0.50000000  0.95668000  1
  O  O68  1  0.50000000  0.50000000  0.84289000  1
  O  O69  1  0.99950800  0.49998000  0.72830400  1
  O  O70  1  0.49841100  0.51328000  0.61218100  1
  O  O71  1  0.50000000  0.50000000  0.92952000  1
  O  O72  1  1.00000000  0.50000000  0.81573000  1
  O  O73  1  0.50073300  0.49977300  0.70418500  1
  O  O74  1  0.00378100  0.49304400  0.58834300  1
  O  O75  1  0.30966000  0.00000000  1.00000000  1
  O  O76  1  0.80966000  0.00000000  0.88621000  1
  O  O77  1  0.30966000  0.00000000  0.77241000  1
  O  O78  1  0.80192400  0.98124200  0.65822200  1
  O  O79  1  0.27797500  0.00193000  0.54496100  1
  O  O80  1  0.69034000  0.00000000  0.00000000  1
  O  O81  1  0.19034000  0.00000000  0.88621000  1
  O  O82  1  0.69034000  0.00000000  0.77241000  1
  O  O83  1  0.19873800  0.98239800  0.65839800  1
  O  O84  1  0.72675300  0.00002800  0.54583300  1
