# generated using pymatgen
data_MgTiMnVZnCrFeCoCuNiSb20ClO54
_symmetry_space_group_name_H-M   'P 1'
_cell_length_a   6.71494200
_cell_length_b   9.47430200
_cell_length_c   28.96215800
_cell_angle_alpha   90.06190000
_cell_angle_beta   89.99524000
_cell_angle_gamma   89.99680700
_symmetry_Int_Tables_number   1
_chemical_formula_structural   MgTiMnVZnCrFeCoCuNiSb20ClO54
_chemical_formula_sum
'Mg1 Ti1 Mn1 V1 Zn1 Cr1 Fe1 Co1 Cu1 Ni1 Sb20 Cl1 O54'
_cell_volume   1842.55369478
_cell_formula_units_Z   1
loop_
 _symmetry_equiv_pos_site_id
 _symmetry_equiv_pos_as_xyz
  1  'x, y, z'
loop_
 _atom_site_type_symbol
 _atom_site_label
 _atom_site_symmetry_multiplicity
 _atom_site_fract_x
 _atom_site_fract_y
 _atom_site_fract_z
 _atom_site_occupancy
  Mg  Mg0  1  0.00000000  0.83232000  0.11379000  1
  Ti  Ti1  1  0.00068300  0.19202800  0.34451000  1
  Mn  Mn2  1  0.49995100  0.33012000  0.34105900  1
  V  V3  1  0.50227400  0.49217300  0.44807100  1
  Zn  Zn4  1  0.50000000  0.33232000  0.11379000  1
  Cr  Cr5  1  0.99994700  0.49251400  0.33836400  1
  Fe  Fe6  1  0.50000000  0.83232000  0.00000000  1
  Co  Co7  1  0.00000000  0.66768000  0.22759000  1
  Cu  Cu8  1  0.50000000  1.00000000  0.11379000  1
  Ni  Ni9  1  0.00173300  0.00092000  0.44489200  1
  Sb  Sb10  1  0.00000000  0.00000000  0.00000000  1
  Sb  Sb11  1  0.00000000  0.00000000  0.22759000  1
  Sb  Sb12  1  0.50024800  0.00176600  0.34568900  1
  Sb  Sb13  1  0.50000000  0.50000000  1.00000000  1
  Sb  Sb14  1  0.00000000  0.50000000  0.11379000  1
  Sb  Sb15  1  0.50000000  0.50000000  0.22759000  1
  Sb  Sb16  1  0.00000000  0.66768000  0.00000000  1
  Sb  Sb17  1  0.50000000  0.66768000  0.11379000  1
  Sb  Sb18  1  0.49988300  0.66133900  0.34302000  1
  Sb  Sb19  1  0.00090900  0.66781100  0.45345800  1
  Sb  Sb20  1  0.50000000  0.16768000  0.00000000  1
  Sb  Sb21  1  0.00000000  0.16768000  0.11379000  1
  Sb  Sb22  1  0.50000000  0.16768000  0.22759000  1
  Sb  Sb23  1  0.50125700  0.14945400  0.45906900  1
  Sb  Sb24  1  0.50000000  0.83232000  0.22759000  1
  Sb  Sb25  1  0.00019800  0.83360100  0.33974000  1
  Sb  Sb26  1  0.50249400  0.81574300  0.46713200  1
  Sb  Sb27  1  0.00000000  0.33232000  0.00000000  1
  Sb  Sb28  1  0.00000000  0.33232000  0.22759000  1
  Sb  Sb29  1  0.00186200  0.33561200  0.45621800  1
  Cl  Cl30  1  0.50892100  0.52148800  0.52699500  1
  O  O31  1  0.00000000  0.82836000  0.04494000  1
  O  O32  1  0.50000000  0.82836000  0.15874000  1
  O  O33  1  0.99980400  0.84474300  0.27065200  1
  O  O34  1  0.49960500  0.83049100  0.38716100  1
  O  O35  1  0.50000000  0.82836000  0.06885000  1
  O  O36  1  1.00000000  0.82836000  0.18264000  1
  O  O37  1  0.50090500  0.83629000  0.29831500  1
  O  O38  1  0.00365200  0.82593200  0.40828700  1
  O  O39  1  0.30253000  0.32836000  0.00000000  1
  O  O40  1  0.80253000  0.32836000  0.11379000  1
  O  O41  1  0.30253000  0.32836000  0.22759000  1
  O  O42  1  0.81139600  0.33017800  0.33866300  1
  O  O43  1  0.31382600  0.35992400  0.44867400  1
  O  O44  1  0.69747000  0.32836000  0.00000000  1
  O  O45  1  0.19747000  0.32836000  0.11379000  1
  O  O46  1  0.69747000  0.32836000  0.22759000  1
  O  O47  1  0.18817100  0.33091000  0.33792500  1
  O  O48  1  0.68934300  0.35974800  0.44755400  1
  O  O49  1  0.30253000  0.67164000  0.00000000  1
  O  O50  1  0.80253000  0.67164000  0.11379000  1
  O  O51  1  0.30253000  0.67164000  0.22759000  1
  O  O52  1  0.80756800  0.66440600  0.33896400  1
  O  O53  1  0.31484300  0.65204800  0.44406900  1
  O  O54  1  0.69747000  0.67164000  0.00000000  1
  O  O55  1  0.19747000  0.67164000  0.11379000  1
  O  O56  1  0.69747000  0.67164000  0.22759000  1
  O  O57  1  0.19260200  0.66448300  0.33859000  1
  O  O58  1  0.68737700  0.65145100  0.44255900  1
  O  O59  1  0.00000000  0.17164000  0.04494000  1
  O  O60  1  0.50000000  0.17164000  0.15874000  1
  O  O61  1  0.99978400  0.15531300  0.27066400  1
  O  O62  1  0.49814900  0.16408700  0.38860600  1
  O  O63  1  0.50000000  0.17164000  0.06885000  1
  O  O64  1  0.00000000  0.17164000  0.18264000  1
  O  O65  1  0.50069500  0.16150700  0.29751900  1
  O  O66  1  0.00383700  0.18069400  0.40994000  1
  O  O67  1  1.00000000  0.50000000  0.04332000  1
  O  O68  1  0.50000000  0.50000000  0.15711000  1
  O  O69  1  0.99950800  0.50002000  0.27169600  1
  O  O70  1  0.49550300  0.49269700  0.38243300  1
  O  O71  1  0.50000000  0.50000000  0.07048000  1
  O  O72  1  0.00000000  0.50000000  0.18427000  1
  O  O73  1  0.50134800  0.50020700  0.29616800  1
  O  O74  1  0.00274900  0.49805900  0.40962500  1
  O  O75  1  0.30966000  0.00000000  0.00000000  1
  O  O76  1  0.80966000  1.00000000  0.11379000  1
  O  O77  1  0.30966000  0.00000000  0.22759000  1
  O  O78  1  0.80598000  0.00127300  0.34158700  1
  O  O79  1  0.29132100  0.99065100  0.45442700  1
  O  O80  1  0.69034000  1.00000000  1.00000000  1
  O  O81  1  0.19034000  0.00000000  0.11379000  1
  O  O82  1  0.69034000  1.00000000  0.22759000  1
  O  O83  1  0.19476500  0.00117800  0.34132100  1
  O  O84  1  0.71122600  0.99133200  0.45301000  1
