# generated using pymatgen
data_MgTiMnVZnCrFeCoCuNiSb20ClO54
_symmetry_space_group_name_H-M   'P 1'
_cell_length_a   6.59237400
_cell_length_b   9.57299400
_cell_length_c   29.25791800
_cell_angle_alpha   89.91101200
_cell_angle_beta   89.99831000
_cell_angle_gamma   89.99702000
_symmetry_Int_Tables_number   1
_chemical_formula_structural   MgTiMnVZnCrFeCoCuNiSb20ClO54
_chemical_formula_sum
'Mg1 Ti1 Mn1 V1 Zn1 Cr1 Fe1 Co1 Cu1 Ni1 Sb20 Cl1 O54'
_cell_volume   1846.42859971
_cell_formula_units_Z   1
loop_
 _symmetry_equiv_pos_site_id
 _symmetry_equiv_pos_as_xyz
  1  'x, y, z'
loop_
 _atom_site_type_symbol
 _atom_site_label
 _atom_site_symmetry_multiplicity
 _atom_site_fract_x
 _atom_site_fract_y
 _atom_site_fract_z
 _atom_site_occupancy
  Mg  Mg0  1  1.00000000  0.50000000  0.11379000  1
  Ti  Ti1  1  0.50000000  0.16768000  0.00000000  1
  Mn  Mn2  1  0.00021800  0.99802200  0.43682800  1
  V  V3  1  0.50064700  0.49732800  0.44868500  1
  Zn  Zn4  1  0.50000000  0.83232000  0.22759000  1
  Cr  Cr5  1  0.00000000  0.66768000  0.00000000  1
  Fe  Fe6  1  0.00009100  0.49905700  0.34170300  1
  Co  Co7  1  0.49982500  0.99837400  0.33937700  1
  Cu  Cu8  1  1.00000000  0.83232000  0.11379000  1
  Ni  Ni9  1  0.50000000  0.16768000  0.22759000  1
  Sb  Sb10  1  0.00000000  0.00000000  0.00000000  1
  Sb  Sb11  1  0.50000000  0.00000000  0.11379000  1
  Sb  Sb12  1  1.00000000  0.00000000  0.22759000  1
  Sb  Sb13  1  0.50000000  0.50000000  0.00000000  1
  Sb  Sb14  1  0.50000000  0.50000000  0.22759000  1
  Sb  Sb15  1  0.50000000  0.66768000  0.11379000  1
  Sb  Sb16  1  1.00000000  0.66768000  0.22759000  1
  Sb  Sb17  1  0.50005200  0.67537600  0.34144300  1
  Sb  Sb18  1  0.99975600  0.65797400  0.45820200  1
  Sb  Sb19  1  1.00000000  0.16768000  0.11379000  1
  Sb  Sb20  1  0.99992900  0.16724100  0.34142900  1
  Sb  Sb21  1  0.50002900  0.16674800  0.45495200  1
  Sb  Sb22  1  0.50000000  0.83232000  0.00000000  1
  Sb  Sb23  1  0.99996600  0.83095200  0.34101000  1
  Sb  Sb24  1  0.50021700  0.82666100  0.45672900  1
  Sb  Sb25  1  0.00000000  0.33232000  0.00000000  1
  Sb  Sb26  1  0.50000000  0.33232000  0.11379000  1
  Sb  Sb27  1  1.00000000  0.33232000  0.22759000  1
  Sb  Sb28  1  0.49997100  0.32256100  0.33934000  1
  Sb  Sb29  1  0.99956200  0.33830800  0.45859600  1
  Cl  Cl30  1  0.50729900  0.50024400  0.52672900  1
  O  O31  1  1.00000000  0.82836000  0.04494000  1
  O  O32  1  0.50000000  0.82836000  0.15874000  1
  O  O33  1  0.99980400  0.84474300  0.27065200  1
  O  O34  1  0.49920000  0.83064100  0.38821500  1
  O  O35  1  0.50000000  0.82836000  0.06885000  1
  O  O36  1  1.00000000  0.82836000  0.18264000  1
  O  O37  1  0.50009100  0.83226500  0.29958700  1
  O  O38  1  0.00051500  0.81384000  0.41238900  1
  O  O39  1  0.30253000  0.32836000  0.00000000  1
  O  O40  1  0.80253000  0.32836000  0.11379000  1
  O  O41  1  0.30253000  0.32836000  0.22759000  1
  O  O42  1  0.80789600  0.33333333  0.34027100  1
  O  O43  1  0.31232900  0.35563600  0.44639400  1
  O  O44  1  0.69747000  0.32836000  0.00000000  1
  O  O45  1  0.19747000  0.32836000  0.11379000  1
  O  O46  1  0.69747000  0.32836000  0.22759000  1
  O  O47  1  0.19193700  0.33333333  0.34021800  1
  O  O48  1  0.68804600  0.35432700  0.44562700  1
  O  O49  1  0.30253000  0.67164000  0.00000000  1
  O  O50  1  0.80253000  0.67164000  0.11379000  1
  O  O51  1  0.30253000  0.67164000  0.22759000  1
  O  O52  1  0.80837000  0.66427500  0.34080400  1
  O  O53  1  0.31243600  0.64212000  0.44604800  1
  O  O54  1  0.69747000  0.67164000  0.00000000  1
  O  O55  1  0.19747000  0.67164000  0.11379000  1
  O  O56  1  0.69747000  0.67164000  0.22759000  1
  O  O57  1  0.19167300  0.66445400  0.34069500  1
  O  O58  1  0.68781100  0.64214600  0.44508100  1
  O  O59  1  1.00000000  0.17164000  0.04494000  1
  O  O60  1  0.50000000  0.17164000  0.15874000  1
  O  O61  1  0.99978400  0.15531300  0.27066400  1
  O  O62  1  0.49885800  0.16718800  0.38630800  1
  O  O63  1  0.50000000  0.17164000  0.06885000  1
  O  O64  1  1.00000000  0.17164000  0.18264000  1
  O  O65  1  0.49993600  0.16536300  0.29711200  1
  O  O66  1  0.00109300  0.18300500  0.41263600  1
  O  O67  1  1.00000000  0.50000000  0.04332000  1
  O  O68  1  0.50000000  0.50000000  0.15711000  1
  O  O69  1  0.99950800  0.50002000  0.27169600  1
  O  O70  1  0.49955000  0.49703900  0.38087000  1
  O  O71  1  0.50000000  0.50000000  0.07048000  1
  O  O72  1  1.00000000  0.50000000  0.18427000  1
  O  O73  1  0.50007200  0.49946000  0.29698300  1
  O  O74  1  0.00052400  0.49754300  0.41280400  1
  O  O75  1  0.30966000  0.00000000  0.00000000  1
  O  O76  1  0.80966000  0.00000000  0.11379000  1
  O  O77  1  0.30966000  0.00000000  0.22759000  1
  O  O78  1  0.80528300  0.99922600  0.34635700  1
  O  O79  1  0.27442000  0.99795100  0.45207600  1
  O  O80  1  0.69034000  0.00000000  0.00000000  1
  O  O81  1  0.19034000  0.00000000  0.11379000  1
  O  O82  1  0.69034000  0.00000000  0.22759000  1
  O  O83  1  0.19446500  0.99915900  0.34625700  1
  O  O84  1  0.72557800  0.99941300  0.45177700  1
