# generated using pymatgen
data_MgTiMnVZnCrFeCoCuNiSb20ClO54
_symmetry_space_group_name_H-M   'P 1'
_cell_length_a   6.64430500
_cell_length_b   9.58606900
_cell_length_c   28.97531800
_cell_angle_alpha   90.25621500
_cell_angle_beta   89.94304400
_cell_angle_gamma   89.99912900
_symmetry_Int_Tables_number   1
_chemical_formula_structural   MgTiMnVZnCrFeCoCuNiSb20ClO54
_chemical_formula_sum
'Mg1 Ti1 Mn1 V1 Zn1 Cr1 Fe1 Co1 Cu1 Ni1 Sb20 Cl1 O54'
_cell_volume   1845.49879004
_cell_formula_units_Z   1
loop_
 _symmetry_equiv_pos_site_id
 _symmetry_equiv_pos_as_xyz
  1  'x, y, z'
loop_
 _atom_site_type_symbol
 _atom_site_label
 _atom_site_symmetry_multiplicity
 _atom_site_fract_x
 _atom_site_fract_y
 _atom_site_fract_z
 _atom_site_occupancy
  Mg  Mg0  1  0.50000000  0.50000000  1.00000000  1
  Ti  Ti1  1  0.50000000  0.00000000  0.88621000  1
  Mn  Mn2  1  0.00000000  0.66768000  1.00000000  1
  V  V3  1  0.49905200  0.49749800  0.54399800  1
  Zn  Zn4  1  0.00249400  0.16476600  0.66441100  1
  Cr  Cr5  1  0.99685100  0.00799000  0.57890300  1
  Fe  Fe6  1  0.50000000  0.50000000  0.77241000  1
  Co  Co7  1  0.00000000  0.00000000  0.00000000  1
  Cu  Cu8  1  0.50000000  0.16768000  0.77241000  1
  Ni  Ni9  1  0.00000000  0.00000000  0.77241000  1
  Sb  Sb10  1  0.50088300  0.00399100  0.65544000  1
  Sb  Sb11  1  1.00000000  0.50000000  0.88621000  1
  Sb  Sb12  1  0.99808900  0.48081600  0.64930900  1
  Sb  Sb13  1  0.50000000  0.66768000  0.88621000  1
  Sb  Sb14  1  0.00000000  0.66768000  0.77241000  1
  Sb  Sb15  1  0.50032100  0.66325800  0.65682500  1
  Sb  Sb16  1  0.00354600  0.68232900  0.53336900  1
  Sb  Sb17  1  0.50000000  0.16768000  1.00000000  1
  Sb  Sb18  1  1.00000000  0.16768000  0.88621000  1
  Sb  Sb19  1  0.50109400  0.17170700  0.53885300  1
  Sb  Sb20  1  0.50000000  0.83232000  1.00000000  1
  Sb  Sb21  1  1.00000000  0.83232000  0.88621000  1
  Sb  Sb22  1  0.50000000  0.83232000  0.77241000  1
  Sb  Sb23  1  0.00015900  0.82962200  0.66102100  1
  Sb  Sb24  1  0.50134000  0.82283700  0.53927800  1
  Sb  Sb25  1  0.00000000  0.33232000  1.00000000  1
  Sb  Sb26  1  0.50000000  0.33232000  0.88621000  1
  Sb  Sb27  1  0.00000000  0.33232000  0.77241000  1
  Sb  Sb28  1  0.50069100  0.33167300  0.66096500  1
  Sb  Sb29  1  0.00309000  0.31372100  0.52986300  1
  Cl  Cl30  1  0.47680800  0.51208200  0.46587500  1
  O  O31  1  0.00000000  0.82836000  0.95506000  1
  O  O32  1  0.50000000  0.82836000  0.84126000  1
  O  O33  1  0.00019600  0.84474300  0.72934800  1
  O  O34  1  0.50541600  0.82621900  0.61048900  1
  O  O35  1  0.50000000  0.82836000  0.93115000  1
  O  O36  1  0.00000000  0.82836000  0.81736000  1
  O  O37  1  0.49896000  0.83096000  0.70038700  1
  O  O38  1  0.99276000  0.80404100  0.59063600  1
  O  O39  1  0.69747000  0.32836000  1.00000000  1
  O  O40  1  0.19747000  0.32836000  0.88621000  1
  O  O41  1  0.69747000  0.32836000  0.77241000  1
  O  O42  1  0.20712700  0.32622200  0.66038400  1
  O  O43  1  0.68556800  0.34318100  0.54212900  1
  O  O44  1  0.30253000  0.32836000  1.00000000  1
  O  O45  1  0.80253000  0.32836000  0.88621000  1
  O  O46  1  0.30253000  0.32836000  0.77241000  1
  O  O47  1  0.79403300  0.32458800  0.66191800  1
  O  O48  1  0.31529800  0.34310000  0.54551200  1
  O  O49  1  0.69747000  0.67164000  1.00000000  1
  O  O50  1  0.19747000  0.67164000  0.88621000  1
  O  O51  1  0.69747000  0.67164000  0.77241000  1
  O  O52  1  0.20339900  0.67549100  0.66304700  1
  O  O53  1  0.68727800  0.65416600  0.54626400  1
  O  O54  1  0.30253000  0.67164000  1.00000000  1
  O  O55  1  0.80253000  0.67164000  0.88621000  1
  O  O56  1  0.30253000  0.67164000  0.77241000  1
  O  O57  1  0.79668000  0.67588200  0.66444000  1
  O  O58  1  0.31399000  0.65583700  0.55007000  1
  O  O59  1  0.00000000  0.17164000  0.95506000  1
  O  O60  1  0.50000000  0.17164000  0.84126000  1
  O  O61  1  0.00021600  0.15531300  0.72933600  1
  O  O62  1  0.50302900  0.17250600  0.60964500  1
  O  O63  1  0.50000000  0.17164000  0.93115000  1
  O  O64  1  1.00000000  0.17164000  0.81736000  1
  O  O65  1  0.49766900  0.16217000  0.70091700  1
  O  O66  1  0.99688000  0.19927300  0.58694300  1
  O  O67  1  0.00000000  0.50000000  0.95668000  1
  O  O68  1  0.50000000  0.50000000  0.84289000  1
  O  O69  1  0.00049200  0.50002000  0.72830400  1
  O  O70  1  0.50616200  0.49468000  0.61333800  1
  O  O71  1  0.50000000  0.50000000  0.92952000  1
  O  O72  1  1.00000000  0.50000000  0.81573000  1
  O  O73  1  0.49846800  0.50427700  0.70227100  1
  O  O74  1  0.99917100  0.49633000  0.56273300  1
  O  O75  1  0.69034000  0.00000000  0.00000000  1
  O  O76  1  0.19034000  0.00000000  0.88621000  1
  O  O77  1  0.69034000  0.00000000  0.77241000  1
  O  O78  1  0.18769400  0.99052900  0.64488000  1
  O  O79  1  0.77308500  0.99960400  0.54735400  1
  O  O80  1  0.30966000  0.00000000  0.00000000  1
  O  O81  1  0.80966000  0.00000000  0.88621000  1
  O  O82  1  0.30966000  0.00000000  0.77241000  1
  O  O83  1  0.81412000  0.99175600  0.64550200  1
  O  O84  1  0.21578600  0.99751700  0.54676600  1
