# generated using pymatgen
data_MgTiMnVZnCrFeCoCuNiSb20ClO54
_symmetry_space_group_name_H-M   'P 1'
_cell_length_a   6.68471200
_cell_length_b   9.60257700
_cell_length_c   29.18496800
_cell_angle_alpha   90.06512500
_cell_angle_beta   89.92228400
_cell_angle_gamma   89.98952500
_symmetry_Int_Tables_number   1
_chemical_formula_structural   MgTiMnVZnCrFeCoCuNiSb20ClO54
_chemical_formula_sum
'Mg1 Ti1 Mn1 V1 Zn1 Cr1 Fe1 Co1 Cu1 Ni1 Sb20 Cl1 O54'
_cell_volume   1873.39360533
_cell_formula_units_Z   1
loop_
 _symmetry_equiv_pos_site_id
 _symmetry_equiv_pos_as_xyz
  1  'x, y, z'
loop_
 _atom_site_type_symbol
 _atom_site_label
 _atom_site_symmetry_multiplicity
 _atom_site_fract_x
 _atom_site_fract_y
 _atom_site_fract_z
 _atom_site_occupancy
  Mg  Mg0  1  0.99677100  0.99839500  0.56639100  1
  Ti  Ti1  1  0.50000000  0.50000000  0.77241000  1
  Mn  Mn2  1  0.50000000  0.16768000  1.00000000  1
  V  V3  1  0.49887800  0.50091800  0.55232700  1
  Zn  Zn4  1  1.00000000  0.33232000  0.00000000  1
  Cr  Cr5  1  0.50000000  0.83232000  0.77241000  1
  Fe  Fe6  1  1.00000000  0.00000000  0.77241000  1
  Co  Co7  1  0.50059100  0.00117500  0.66064200  1
  Cu  Cu8  1  0.50000000  0.16768000  0.77241000  1
  Ni  Ni9  1  0.00000000  0.66768000  0.77241000  1
  Sb  Sb10  1  0.00000000  0.00000000  0.00000000  1
  Sb  Sb11  1  0.50000000  0.00000000  0.88621000  1
  Sb  Sb12  1  0.50000000  0.50000000  1.00000000  1
  Sb  Sb13  1  1.00000000  0.50000000  0.88621000  1
  Sb  Sb14  1  0.00145000  0.50020200  0.66147900  1
  Sb  Sb15  1  0.00000000  0.66768000  0.00000000  1
  Sb  Sb16  1  0.50000000  0.66768000  0.88621000  1
  Sb  Sb17  1  0.50100400  0.67316700  0.66342600  1
  Sb  Sb18  1  0.00009300  0.66627100  0.54590100  1
  Sb  Sb19  1  0.00000000  0.16768000  0.88621000  1
  Sb  Sb20  1  0.00058000  0.16122000  0.66120500  1
  Sb  Sb21  1  0.49710100  0.16655000  0.54421700  1
  Sb  Sb22  1  0.50000000  0.83232000  1.00000000  1
  Sb  Sb23  1  0.00000000  0.83232000  0.88621000  1
  Sb  Sb24  1  0.00043400  0.83804900  0.66372500  1
  Sb  Sb25  1  0.49814600  0.83688000  0.54644200  1
  Sb  Sb26  1  0.50000000  0.33232000  0.88621000  1
  Sb  Sb27  1  0.00000000  0.33232000  0.77241000  1
  Sb  Sb28  1  0.50124900  0.32364800  0.66121900  1
  Sb  Sb29  1  0.99983700  0.33563400  0.54482100  1
  Cl  Cl30  1  0.48868400  0.49852900  0.47485300  1
  O  O31  1  0.00000000  0.82836000  0.95506000  1
  O  O32  1  0.50000000  0.82836000  0.84126000  1
  O  O33  1  0.00019600  0.84474300  0.72934800  1
  O  O34  1  0.50291500  0.82882600  0.61670500  1
  O  O35  1  0.50000000  0.82836000  0.93115000  1
  O  O36  1  0.00000000  0.82836000  0.81736000  1
  O  O37  1  0.50025300  0.83465700  0.70523100  1
  O  O38  1  0.99782300  0.81294000  0.59348100  1
  O  O39  1  0.69747000  0.32836000  1.00000000  1
  O  O40  1  0.19747000  0.32836000  0.88621000  1
  O  O41  1  0.69747000  0.32836000  0.77241000  1
  O  O42  1  0.19345200  0.33356700  0.66029000  1
  O  O43  1  0.68874300  0.35944800  0.55564500  1
  O  O44  1  0.30253000  0.32836000  1.00000000  1
  O  O45  1  0.80253000  0.32836000  0.88621000  1
  O  O46  1  0.30253000  0.32836000  0.77241000  1
  O  O47  1  0.80892100  0.33373800  0.66112100  1
  O  O48  1  0.30985100  0.35978400  0.55770500  1
  O  O49  1  0.69747000  0.67164000  1.00000000  1
  O  O50  1  0.19747000  0.67164000  0.88621000  1
  O  O51  1  0.69747000  0.67164000  0.77241000  1
  O  O52  1  0.19462700  0.66494000  0.66047800  1
  O  O53  1  0.68892800  0.63873500  0.55554200  1
  O  O54  1  0.30253000  0.67164000  1.00000000  1
  O  O55  1  0.80253000  0.67164000  0.88621000  1
  O  O56  1  0.30253000  0.67164000  0.77241000  1
  O  O57  1  0.80752400  0.66469300  0.66119700  1
  O  O58  1  0.30988300  0.63848300  0.55770300  1
  O  O59  1  1.00000000  0.17164000  0.95506000  1
  O  O60  1  0.50000000  0.17164000  0.84126000  1
  O  O61  1  0.00021600  0.15531300  0.72933600  1
  O  O62  1  0.50298700  0.16975900  0.61412300  1
  O  O63  1  0.50000000  0.17164000  0.93115000  1
  O  O64  1  0.00000000  0.17164000  0.81736000  1
  O  O65  1  0.50003800  0.16242800  0.70238900  1
  O  O66  1  0.99788300  0.18604000  0.59152700  1
  O  O67  1  0.00000000  0.50000000  0.95668000  1
  O  O68  1  0.50000000  0.50000000  0.84289000  1
  O  O69  1  0.00049200  0.50002000  0.72830400  1
  O  O70  1  0.50432500  0.50031400  0.62159800  1
  O  O71  1  0.50000000  0.50000000  0.92952000  1
  O  O72  1  0.00000000  0.50000000  0.81573000  1
  O  O73  1  0.49885500  0.49689600  0.70520000  1
  O  O74  1  0.99617100  0.49990100  0.59042300  1
  O  O75  1  0.69034000  1.00000000  1.00000000  1
  O  O76  1  0.19034000  0.00000000  0.88621000  1
  O  O77  1  0.69034000  0.00000000  0.77241000  1
  O  O78  1  0.19680800  0.00005200  0.65376000  1
  O  O79  1  0.70932400  0.99938900  0.54804700  1
  O  O80  1  0.30966000  1.00000000  1.00000000  1
  O  O81  1  0.80966000  0.00000000  0.88621000  1
  O  O82  1  0.30966000  0.00000000  0.77241000  1
  O  O83  1  0.80460900  0.00014100  0.65355700  1
  O  O84  1  0.28704600  0.99965500  0.54968000  1
