# generated using pymatgen
data_MgTiMnVZnCrFeCoCuNiSb20ClO54
_symmetry_space_group_name_H-M   'P 1'
_cell_length_a   6.67713600
_cell_length_b   9.46220800
_cell_length_c   29.80553600
_cell_angle_alpha   90.13376300
_cell_angle_beta   89.94286600
_cell_angle_gamma   89.97515700
_symmetry_Int_Tables_number   1
_chemical_formula_structural   MgTiMnVZnCrFeCoCuNiSb20ClO54
_chemical_formula_sum
'Mg1 Ti1 Mn1 V1 Zn1 Cr1 Fe1 Co1 Cu1 Ni1 Sb20 Cl1 O54'
_cell_volume   1883.12092027
_cell_formula_units_Z   1
loop_
 _symmetry_equiv_pos_site_id
 _symmetry_equiv_pos_as_xyz
  1  'x, y, z'
loop_
 _atom_site_type_symbol
 _atom_site_label
 _atom_site_symmetry_multiplicity
 _atom_site_fract_x
 _atom_site_fract_y
 _atom_site_fract_z
 _atom_site_occupancy
  Mg  Mg0  1  0.50000000  0.50000000  0.00000000  1
  Ti  Ti1  1  0.99839100  0.82726100  0.65971300  1
  Mn  Mn2  1  0.50000000  0.16768000  1.00000000  1
  V  V3  1  0.49754600  0.50137800  0.55177200  1
  Zn  Zn4  1  0.00000000  0.00000000  0.00000000  1
  Cr  Cr5  1  0.49943500  0.81619600  0.56125800  1
  Fe  Fe6  1  0.50000000  0.83232000  0.77241000  1
  Co  Co7  1  0.00000000  0.16768000  0.88621000  1
  Cu  Cu8  1  0.49884100  0.99421900  0.66419500  1
  Ni  Ni9  1  0.99983000  0.50285500  0.66034900  1
  Sb  Sb10  1  0.50000000  1.00000000  0.88621000  1
  Sb  Sb11  1  0.00000000  1.00000000  0.77241000  1
  Sb  Sb12  1  0.99951800  0.98858200  0.54344900  1
  Sb  Sb13  1  0.00000000  0.50000000  0.88621000  1
  Sb  Sb14  1  0.50000000  0.50000000  0.77241000  1
  Sb  Sb15  1  0.00000000  0.66768000  1.00000000  1
  Sb  Sb16  1  0.50000000  0.66768000  0.88621000  1
  Sb  Sb17  1  0.00000000  0.66768000  0.77241000  1
  Sb  Sb18  1  0.49957600  0.67375500  0.66391200  1
  Sb  Sb19  1  0.99884900  0.66351100  0.54799000  1
  Sb  Sb20  1  0.50000000  0.16768000  0.77241000  1
  Sb  Sb21  1  0.00004700  0.15663900  0.65821400  1
  Sb  Sb22  1  0.49963600  0.14923500  0.54821100  1
  Sb  Sb23  1  0.50000000  0.83232000  1.00000000  1
  Sb  Sb24  1  0.00000000  0.83232000  0.88621000  1
  Sb  Sb25  1  0.00000000  0.33232000  1.00000000  1
  Sb  Sb26  1  0.50000000  0.33232000  0.88621000  1
  Sb  Sb27  1  0.00000000  0.33232000  0.77241000  1
  Sb  Sb28  1  0.50042500  0.32564800  0.65753600  1
  Sb  Sb29  1  0.00004500  0.34405600  0.54589900  1
  Cl  Cl30  1  0.48725400  0.50314800  0.47610600  1
  O  O31  1  0.00000000  0.82836000  0.95506000  1
  O  O32  1  0.50000000  0.82836000  0.84126000  1
  O  O33  1  0.00019600  0.84474300  0.72934800  1
  O  O34  1  0.50589000  0.83073100  0.62066200  1
  O  O35  1  0.50000000  0.82836000  0.93115000  1
  O  O36  1  0.00000000  0.82836000  0.81736000  1
  O  O37  1  0.49832800  0.82655600  0.70866200  1
  O  O38  1  0.99743000  0.83077700  0.59179600  1
  O  O39  1  0.69747000  0.32836000  1.00000000  1
  O  O40  1  0.19747000  0.32836000  0.88621000  1
  O  O41  1  0.69747000  0.32836000  0.77241000  1
  O  O42  1  0.19258400  0.32572900  0.66054600  1
  O  O43  1  0.68843100  0.36726000  0.55525100  1
  O  O44  1  0.30253000  0.32836000  1.00000000  1
  O  O45  1  0.80253000  0.32836000  0.88621000  1
  O  O46  1  0.30253000  0.32836000  0.77241000  1
  O  O47  1  0.80777700  0.32563600  0.66077500  1
  O  O48  1  0.30948900  0.36527300  0.55738100  1
  O  O49  1  0.69747000  0.67164000  1.00000000  1
  O  O50  1  0.19747000  0.67164000  0.88621000  1
  O  O51  1  0.69747000  0.67164000  0.77241000  1
  O  O52  1  0.19465200  0.67725200  0.66213800  1
  O  O53  1  0.67897800  0.66071700  0.55517900  1
  O  O54  1  0.30253000  0.67164000  1.00000000  1
  O  O55  1  0.80253000  0.67164000  0.88621000  1
  O  O56  1  0.30253000  0.67164000  0.77241000  1
  O  O57  1  0.80548300  0.67648100  0.66309800  1
  O  O58  1  0.31864900  0.66048700  0.55681300  1
  O  O59  1  0.00000000  0.17164000  0.95506000  1
  O  O60  1  0.50000000  0.17164000  0.84126000  1
  O  O61  1  0.00021600  0.15531300  0.72933600  1
  O  O62  1  0.50217700  0.16340500  0.61514100  1
  O  O63  1  0.50000000  0.17164000  0.93115000  1
  O  O64  1  0.00000000  0.17164000  0.81736000  1
  O  O65  1  0.49929300  0.17472700  0.70517400  1
  O  O66  1  0.99753300  0.16494900  0.58819900  1
  O  O67  1  0.00000000  0.50000000  0.95668000  1
  O  O68  1  0.50000000  0.50000000  0.84289000  1
  O  O69  1  0.00049200  0.50002000  0.72830400  1
  O  O70  1  0.50322700  0.50536400  0.62031000  1
  O  O71  1  0.50000000  0.50000000  0.92952000  1
  O  O72  1  0.00000000  0.50000000  0.81573000  1
  O  O73  1  0.49920300  0.49318100  0.70346900  1
  O  O74  1  0.99730700  0.50296800  0.59295000  1
  O  O75  1  0.69034000  0.00000000  1.00000000  1
  O  O76  1  0.19034000  1.00000000  0.88621000  1
  O  O77  1  0.69034000  1.00000000  0.77241000  1
  O  O78  1  0.18875300  0.99284800  0.65960300  1
  O  O79  1  0.68684300  0.97271000  0.55118500  1
  O  O80  1  0.30966000  0.00000000  0.00000000  1
  O  O81  1  0.80966000  1.00000000  0.88621000  1
  O  O82  1  0.30966000  1.00000000  0.77241000  1
  O  O83  1  0.81083100  0.99294700  0.66030000  1
  O  O84  1  0.31217000  0.97250800  0.55170000  1
