# generated using pymatgen
data_MgTiMnVZnCrFeCoCuNiSb20ClO54
_symmetry_space_group_name_H-M   'P 1'
_cell_length_a   6.69618400
_cell_length_b   9.47265400
_cell_length_c   29.05685800
_cell_angle_alpha   90.13196600
_cell_angle_beta   89.98193700
_cell_angle_gamma   89.98849000
_symmetry_Int_Tables_number   1
_chemical_formula_structural   MgTiMnVZnCrFeCoCuNiSb20ClO54
_chemical_formula_sum
'Mg1 Ti1 Mn1 V1 Zn1 Cr1 Fe1 Co1 Cu1 Ni1 Sb20 Cl1 O54'
_cell_volume   1843.08991163
_cell_formula_units_Z   1
loop_
 _symmetry_equiv_pos_site_id
 _symmetry_equiv_pos_as_xyz
  1  'x, y, z'
loop_
 _atom_site_type_symbol
 _atom_site_label
 _atom_site_symmetry_multiplicity
 _atom_site_fract_x
 _atom_site_fract_y
 _atom_site_fract_z
 _atom_site_occupancy
  Mg  Mg0  1  0.99953400  0.49618700  0.34092500  1
  Ti  Ti1  1  0.50093200  0.18212900  0.44051200  1
  Mn  Mn2  1  1.00000000  0.16768000  0.11379000  1
  V  V3  1  0.50161600  0.50019400  0.44797400  1
  Zn  Zn4  1  0.50000000  0.16768000  1.00000000  1
  Cr  Cr5  1  0.49905200  0.32767200  0.33764100  1
  Fe  Fe6  1  0.00000000  0.66768000  0.22759000  1
  Co  Co7  1  0.00000000  0.66768000  1.00000000  1
  Cu  Cu8  1  0.49935900  0.00472900  0.34030400  1
  Ni  Ni9  1  0.50000000  0.66768000  0.11379000  1
  Sb  Sb10  1  0.00000000  0.00000000  0.00000000  1
  Sb  Sb11  1  0.50000000  0.00000000  0.11379000  1
  Sb  Sb12  1  1.00000000  0.00000000  0.22759000  1
  Sb  Sb13  1  0.00161100  0.00341100  0.46310900  1
  Sb  Sb14  1  0.50000000  0.50000000  0.00000000  1
  Sb  Sb15  1  1.00000000  0.50000000  0.11379000  1
  Sb  Sb16  1  0.50000000  0.50000000  0.22759000  1
  Sb  Sb17  1  0.49950700  0.66983300  0.34294200  1
  Sb  Sb18  1  0.99979900  0.65864100  0.45945700  1
  Sb  Sb19  1  0.50000000  0.16768000  0.22759000  1
  Sb  Sb20  1  0.99952600  0.17382000  0.34406100  1
  Sb  Sb21  1  0.50000000  0.83232000  1.00000000  1
  Sb  Sb22  1  1.00000000  0.83232000  0.11379000  1
  Sb  Sb23  1  0.50000000  0.83232000  0.22759000  1
  Sb  Sb24  1  0.99949100  0.83813700  0.34150300  1
  Sb  Sb25  1  0.50167400  0.84309500  0.45613700  1
  Sb  Sb26  1  1.00000000  0.33232000  1.00000000  1
  Sb  Sb27  1  0.50000000  0.33232000  0.11379000  1
  Sb  Sb28  1  1.00000000  0.33232000  0.22759000  1
  Sb  Sb29  1  0.00119100  0.33750400  0.46064800  1
  Cl  Cl30  1  0.51474100  0.50261000  0.52785400  1
  O  O31  1  1.00000000  0.82836000  0.04494000  1
  O  O32  1  0.50000000  0.82836000  0.15874000  1
  O  O33  1  0.99980400  0.84474300  0.27065200  1
  O  O34  1  0.49839600  0.83398100  0.38785000  1
  O  O35  1  0.50000000  0.82836000  0.06885000  1
  O  O36  1  1.00000000  0.82836000  0.18264000  1
  O  O37  1  0.49986200  0.83196300  0.29660600  1
  O  O38  1  0.00181800  0.83434000  0.41668200  1
  O  O39  1  0.30253000  0.32836000  1.00000000  1
  O  O40  1  0.80253000  0.32836000  0.11379000  1
  O  O41  1  0.30253000  0.32836000  0.22759000  1
  O  O42  1  0.79996100  0.32603600  0.34126700  1
  O  O43  1  0.31676900  0.33459400  0.45227300  1
  O  O44  1  0.69747000  0.32836000  1.00000000  1
  O  O45  1  0.19747000  0.32836000  0.11379000  1
  O  O46  1  0.69747000  0.32836000  0.22759000  1
  O  O47  1  0.19849900  0.32617800  0.34052300  1
  O  O48  1  0.68698400  0.33461700  0.45014500  1
  O  O49  1  0.30253000  0.67164000  1.00000000  1
  O  O50  1  0.80253000  0.67164000  0.11379000  1
  O  O51  1  0.30253000  0.67164000  0.22759000  1
  O  O52  1  0.80499200  0.67514900  0.34343100  1
  O  O53  1  0.31075400  0.63627900  0.44853200  1
  O  O54  1  0.69747000  0.67164000  1.00000000  1
  O  O55  1  0.19747000  0.67164000  0.11379000  1
  O  O56  1  0.69747000  0.67164000  0.22759000  1
  O  O57  1  0.19433000  0.67514600  0.34335600  1
  O  O58  1  0.69129200  0.63703000  0.44596000  1
  O  O59  1  0.00000000  0.17164000  0.04494000  1
  O  O60  1  0.50000000  0.17164000  0.15874000  1
  O  O61  1  0.99978400  0.15531300  0.27066400  1
  O  O62  1  0.49737800  0.17785000  0.38087000  1
  O  O63  1  0.50000000  0.17164000  0.06885000  1
  O  O64  1  1.00000000  0.17164000  0.18264000  1
  O  O65  1  0.50076900  0.17097900  0.29432000  1
  O  O66  1  0.00249900  0.16831200  0.41647800  1
  O  O67  1  1.00000000  0.50000000  0.04332000  1
  O  O68  1  0.50000000  0.50000000  0.15711000  1
  O  O69  1  0.99950800  0.50002000  0.27169600  1
  O  O70  1  0.49663300  0.48844300  0.38297300  1
  O  O71  1  0.50000000  0.50000000  0.07048000  1
  O  O72  1  1.00000000  0.50000000  0.18427000  1
  O  O73  1  0.50098600  0.49880600  0.29695400  1
  O  O74  1  0.00338600  0.49547200  0.41482000  1
  O  O75  1  0.30966000  1.00000000  1.00000000  1
  O  O76  1  0.80966000  0.00000000  0.11379000  1
  O  O77  1  0.30966000  1.00000000  0.22759000  1
  O  O78  1  0.80655600  0.00452700  0.34413400  1
  O  O79  1  0.31187300  0.02413400  0.45440800  1
  O  O80  1  0.69034000  0.00000000  0.00000000  1
  O  O81  1  0.19034000  1.00000000  0.11379000  1
  O  O82  1  0.69034000  0.00000000  0.22759000  1
  O  O83  1  0.19225900  0.00439600  0.34390500  1
  O  O84  1  0.69078400  0.02517100  0.45425500  1
