# generated using pymatgen
data_MgTiMnVZnCrFeCoCuNiSb20ClO54
_symmetry_space_group_name_H-M   'P 1'
_cell_length_a   6.62594000
_cell_length_b   9.54761300
_cell_length_c   28.54177000
_cell_angle_alpha   89.99890800
_cell_angle_beta   89.99678800
_cell_angle_gamma   89.99656900
_symmetry_Int_Tables_number   1
_chemical_formula_structural   MgTiMnVZnCrFeCoCuNiSb20ClO54
_chemical_formula_sum
'Mg1 Ti1 Mn1 V1 Zn1 Cr1 Fe1 Co1 Cu1 Ni1 Sb20 Cl1 O54'
_cell_volume   1805.60690373
_cell_formula_units_Z   1
loop_
 _symmetry_equiv_pos_site_id
 _symmetry_equiv_pos_as_xyz
  1  'x, y, z'
loop_
 _atom_site_type_symbol
 _atom_site_label
 _atom_site_symmetry_multiplicity
 _atom_site_fract_x
 _atom_site_fract_y
 _atom_site_fract_z
 _atom_site_occupancy
  Mg  Mg0  1  0.50000000  0.50000000  0.77241000  1
  Ti  Ti1  1  0.50000000  0.16768000  1.00000000  1
  Mn  Mn2  1  0.00022800  0.50032200  0.65956600  1
  V  V3  1  0.50067200  0.49965500  0.54437300  1
  Zn  Zn4  1  1.00000000  1.00000000  0.77241000  1
  Cr  Cr5  1  1.00000000  0.33232000  0.77241000  1
  Fe  Fe6  1  1.00000000  0.33232000  1.00000000  1
  Co  Co7  1  0.00000000  0.00000000  0.00000000  1
  Cu  Cu8  1  0.50000000  1.00000000  0.88621000  1
  Ni  Ni9  1  1.00000000  0.66768000  1.00000000  1
  Sb  Sb10  1  0.50207300  0.00067300  0.64752100  1
  Sb  Sb11  1  0.00016800  0.00137400  0.54031600  1
  Sb  Sb12  1  0.50000000  0.50000000  1.00000000  1
  Sb  Sb13  1  1.00000000  0.50000000  0.88621000  1
  Sb  Sb14  1  0.50000000  0.33232000  0.88621000  1
  Sb  Sb15  1  0.50129800  0.33714700  0.65943400  1
  Sb  Sb16  1  0.00006700  0.34293100  0.53946000  1
  Sb  Sb17  1  0.50000000  0.83232000  1.00000000  1
  Sb  Sb18  1  1.00000000  0.83232000  0.88621000  1
  Sb  Sb19  1  0.50000000  0.83232000  0.77241000  1
  Sb  Sb20  1  0.00215000  0.82951000  0.65945800  1
  Sb  Sb21  1  0.49990000  0.82633000  0.53516600  1
  Sb  Sb22  1  1.00000000  0.16768000  0.88621000  1
  Sb  Sb23  1  0.50000000  0.16768000  0.77241000  1
  Sb  Sb24  1  0.00202100  0.17260600  0.66195400  1
  Sb  Sb25  1  0.50031000  0.17286700  0.53563200  1
  Sb  Sb26  1  0.50000000  0.66768000  0.88621000  1
  Sb  Sb27  1  1.00000000  0.66768000  0.77241000  1
  Sb  Sb28  1  0.50077000  0.66239100  0.65804800  1
  Sb  Sb29  1  0.99995400  0.65587900  0.53776700  1
  Cl  Cl30  1  0.50529600  0.50073100  0.46560500  1
  O  O31  1  1.00000000  0.17164000  0.95506000  1
  O  O32  1  0.50000000  0.17164000  0.84126000  1
  O  O33  1  0.99980400  0.15525700  0.72934800  1
  O  O34  1  0.49953200  0.18557400  0.60986700  1
  O  O35  1  0.50000000  0.17164000  0.93115000  1
  O  O36  1  1.00000000  0.17164000  0.81736000  1
  O  O37  1  0.50047900  0.16412300  0.69961100  1
  O  O38  1  0.00177100  0.17371300  0.58884500  1
  O  O39  1  0.30253000  0.67164000  1.00000000  1
  O  O40  1  0.80253000  0.67164000  0.88621000  1
  O  O41  1  0.30253000  0.67164000  0.77241000  1
  O  O42  1  0.80361900  0.66983700  0.65921700  1
  O  O43  1  0.31302200  0.64923700  0.54986000  1
  O  O44  1  0.69747000  0.67164000  1.00000000  1
  O  O45  1  0.19747000  0.67164000  0.88621000  1
  O  O46  1  0.69747000  0.67164000  0.77241000  1
  O  O47  1  0.19788000  0.66865700  0.65949200  1
  O  O48  1  0.68746100  0.64969000  0.55022800  1
  O  O49  1  0.30253000  0.32836000  1.00000000  1
  O  O50  1  0.80253000  0.32836000  0.88621000  1
  O  O51  1  0.30253000  0.32836000  0.77241000  1
  O  O52  1  0.80329500  0.33281000  0.65862700  1
  O  O53  1  0.31364200  0.35076000  0.54993400  1
  O  O54  1  0.69747000  0.32836000  1.00000000  1
  O  O55  1  0.19747000  0.32836000  0.88621000  1
  O  O56  1  0.69747000  0.32836000  0.77241000  1
  O  O57  1  0.19907400  0.33324500  0.65872700  1
  O  O58  1  0.68727600  0.35038100  0.55024400  1
  O  O59  1  1.00000000  0.82836000  0.95506000  1
  O  O60  1  0.50000000  0.82836000  0.84126000  1
  O  O61  1  0.99978400  0.84468700  0.72933600  1
  O  O62  1  0.49815500  0.81452200  0.60953800  1
  O  O63  1  0.50000000  0.82836000  0.93115000  1
  O  O64  1  1.00000000  0.82836000  0.81736000  1
  O  O65  1  0.50020600  0.83145500  0.70054100  1
  O  O66  1  0.00151100  0.82600500  0.58733800  1
  O  O67  1  1.00000000  0.50000000  0.95668000  1
  O  O68  1  0.50000000  0.50000000  0.84289000  1
  O  O69  1  0.99950800  0.49998000  0.72830400  1
  O  O70  1  0.50084700  0.49912900  0.61431000  1
  O  O71  1  0.50000000  0.50000000  0.92952000  1
  O  O72  1  1.00000000  0.50000000  0.81573000  1
  O  O73  1  0.50101000  0.50190300  0.70239800  1
  O  O74  1  0.00011900  0.50097200  0.59015500  1
  O  O75  1  0.30966000  1.00000000  1.00000000  1
  O  O76  1  0.80966000  1.00000000  0.88621000  1
  O  O77  1  0.30966000  1.00000000  0.77241000  1
  O  O78  1  0.81122300  0.99909700  0.65658600  1
  O  O79  1  0.30689800  0.99978200  0.55890900  1
  O  O80  1  0.69034000  1.00000000  1.00000000  1
  O  O81  1  0.19034000  1.00000000  0.88621000  1
  O  O82  1  0.69034000  1.00000000  0.77241000  1
  O  O83  1  0.19394200  0.99900800  0.65739600  1
  O  O84  1  0.69351300  0.99971200  0.55908200  1
