# generated using pymatgen
data_MgTiMnVZnCrFeCoCuNiSb20ClO54
_symmetry_space_group_name_H-M   'P 1'
_cell_length_a   6.68545500
_cell_length_b   9.54830800
_cell_length_c   28.79866700
_cell_angle_alpha   90.14412900
_cell_angle_beta   89.83941100
_cell_angle_gamma   89.98070900
_symmetry_Int_Tables_number   1
_chemical_formula_structural   MgTiMnVZnCrFeCoCuNiSb20ClO54
_chemical_formula_sum
'Mg1 Ti1 Mn1 V1 Zn1 Cr1 Fe1 Co1 Cu1 Ni1 Sb20 Cl1 O54'
_cell_volume   1838.34352605
_cell_formula_units_Z   1
loop_
 _symmetry_equiv_pos_site_id
 _symmetry_equiv_pos_as_xyz
  1  'x, y, z'
loop_
 _atom_site_type_symbol
 _atom_site_label
 _atom_site_symmetry_multiplicity
 _atom_site_fract_x
 _atom_site_fract_y
 _atom_site_fract_z
 _atom_site_occupancy
  Mg  Mg0  1  0.50000000  0.50000000  1.00000000  1
  Ti  Ti1  1  0.49808300  0.97578700  0.34570700  1
  Mn  Mn2  1  0.00325600  0.01400500  0.44212000  1
  V  V3  1  0.49622400  0.50040300  0.44744100  1
  Zn  Zn4  1  1.00000000  0.66768000  0.22759000  1
  Cr  Cr5  1  0.00000000  0.33232000  0.22759000  1
  Fe  Fe6  1  0.00000000  0.33232000  0.00000000  1
  Co  Co7  1  0.00000000  0.83232000  0.11379000  1
  Cu  Cu8  1  0.49858400  0.67549700  0.34201300  1
  Ni  Ni9  1  0.50000000  1.00000000  0.11379000  1
  Sb  Sb10  1  0.00000000  0.00000000  0.00000000  1
  Sb  Sb11  1  1.00000000  0.00000000  0.22759000  1
  Sb  Sb12  1  0.00000000  0.50000000  0.11379000  1
  Sb  Sb13  1  0.50000000  0.50000000  0.22759000  1
  Sb  Sb14  1  0.99896900  0.50944800  0.33921200  1
  Sb  Sb15  1  1.00000000  0.66768000  0.00000000  1
  Sb  Sb16  1  0.50000000  0.66768000  0.11379000  1
  Sb  Sb17  1  0.99441700  0.68101300  0.45810400  1
  Sb  Sb18  1  0.50000000  0.16768000  0.00000000  1
  Sb  Sb19  1  1.00000000  0.16768000  0.11379000  1
  Sb  Sb20  1  0.50000000  0.16768000  0.22759000  1
  Sb  Sb21  1  0.99733300  0.16267200  0.34483200  1
  Sb  Sb22  1  0.50051800  0.16489800  0.45740100  1
  Sb  Sb23  1  0.50000000  0.83232000  1.00000000  1
  Sb  Sb24  1  0.50000000  0.83232000  0.22759000  1
  Sb  Sb25  1  0.99861400  0.82875100  0.33947500  1
  Sb  Sb26  1  0.50149600  0.82152300  0.46394000  1
  Sb  Sb27  1  0.50000000  0.33232000  0.11379000  1
  Sb  Sb28  1  0.49830300  0.33667200  0.34126700  1
  Sb  Sb29  1  0.98996100  0.36563600  0.46869200  1
  Cl  Cl30  1  0.53207500  0.53634100  0.52889300  1
  O  O31  1  0.00000000  0.82836000  0.04494000  1
  O  O32  1  0.50000000  0.82836000  0.15874000  1
  O  O33  1  0.99980400  0.84474300  0.27065200  1
  O  O34  1  0.49609200  0.86009700  0.39402600  1
  O  O35  1  0.50000000  0.82836000  0.06885000  1
  O  O36  1  0.00000000  0.82836000  0.18264000  1
  O  O37  1  0.49754600  0.84582800  0.29655700  1
  O  O38  1  0.00205500  0.83476300  0.41087900  1
  O  O39  1  0.30253000  0.32836000  0.00000000  1
  O  O40  1  0.80253000  0.32836000  0.11379000  1
  O  O41  1  0.30253000  0.32836000  0.22759000  1
  O  O42  1  0.79947600  0.34786600  0.34317300  1
  O  O43  1  0.30953900  0.37230500  0.45549500  1
  O  O44  1  0.69747000  0.32836000  0.00000000  1
  O  O45  1  0.19747000  0.32836000  0.11379000  1
  O  O46  1  0.69747000  0.32836000  0.22759000  1
  O  O47  1  0.19644800  0.34595900  0.34267100  1
  O  O48  1  0.68698400  0.36129600  0.45036400  1
  O  O49  1  0.30253000  0.67164000  0.00000000  1
  O  O50  1  0.80253000  0.67164000  0.11379000  1
  O  O51  1  0.30253000  0.67164000  0.22759000  1
  O  O52  1  0.80198900  0.67005000  0.34152200  1
  O  O53  1  0.31060700  0.65739800  0.44806100  1
  O  O54  1  0.69747000  0.67164000  0.00000000  1
  O  O55  1  0.19747000  0.67164000  0.11379000  1
  O  O56  1  0.69747000  0.67164000  0.22759000  1
  O  O57  1  0.19591500  0.67046300  0.34167100  1
  O  O58  1  0.69038800  0.65950000  0.44289300  1
  O  O59  1  0.00000000  0.17164000  0.04494000  1
  O  O60  1  0.50000000  0.17164000  0.15874000  1
  O  O61  1  0.99978400  0.15531300  0.27066400  1
  O  O62  1  0.49684400  0.16575900  0.38565900  1
  O  O63  1  0.50000000  0.17164000  0.06885000  1
  O  O64  1  0.00000000  0.17164000  0.18264000  1
  O  O65  1  0.49961500  0.16574200  0.29860700  1
  O  O66  1  0.01200900  0.20102100  0.42907500  1
  O  O67  1  0.00000000  0.50000000  0.04332000  1
  O  O68  1  0.50000000  0.50000000  0.15711000  1
  O  O69  1  0.99950800  0.50002000  0.27169600  1
  O  O70  1  0.49601400  0.49864800  0.38479800  1
  O  O71  1  0.50000000  0.50000000  0.07048000  1
  O  O72  1  0.00000000  0.50000000  0.18427000  1
  O  O73  1  0.49709600  0.49397700  0.29595200  1
  O  O74  1  0.00181200  0.50971500  0.41379900  1
  O  O75  1  0.30966000  0.00000000  0.00000000  1
  O  O76  1  0.80966000  1.00000000  0.11379000  1
  O  O77  1  0.30966000  0.00000000  0.22759000  1
  O  O78  1  0.79405400  0.98178800  0.34192300  1
  O  O79  1  0.27237500  0.00356500  0.45727300  1
  O  O80  1  0.69034000  1.00000000  0.00000000  1
  O  O81  1  0.19034000  1.00000000  0.11379000  1
  O  O82  1  0.69034000  1.00000000  0.22759000  1
  O  O83  1  0.20157900  0.98336000  0.34199300  1
  O  O84  1  0.72967800  0.01160500  0.45557600  1
