# generated using pymatgen
data_MgTiMnVZnCrFeCoCuNiSb20ClO54
_symmetry_space_group_name_H-M   'P 1'
_cell_length_a   6.75988900
_cell_length_b   9.44464400
_cell_length_c   29.61672800
_cell_angle_alpha   89.85767500
_cell_angle_beta   89.88634400
_cell_angle_gamma   89.94069600
_symmetry_Int_Tables_number   1
_chemical_formula_structural   MgTiMnVZnCrFeCoCuNiSb20ClO54
_chemical_formula_sum
'Mg1 Ti1 Mn1 V1 Zn1 Cr1 Fe1 Co1 Cu1 Ni1 Sb20 Cl1 O54'
_cell_volume   1890.86189214
_cell_formula_units_Z   1
loop_
 _symmetry_equiv_pos_site_id
 _symmetry_equiv_pos_as_xyz
  1  'x, y, z'
loop_
 _atom_site_type_symbol
 _atom_site_label
 _atom_site_symmetry_multiplicity
 _atom_site_fract_x
 _atom_site_fract_y
 _atom_site_fract_z
 _atom_site_occupancy
  Mg  Mg0  1  0.50595600  0.17052400  0.43819400  1
  Ti  Ti1  1  0.50000000  0.66768000  0.11379000  1
  Mn  Mn2  1  0.50000000  0.83232000  0.22759000  1
  V  V3  1  0.52617400  0.49323600  0.44368700  1
  Zn  Zn4  1  0.00000000  1.00000000  0.22759000  1
  Cr  Cr5  1  0.50000000  0.00000000  0.11379000  1
  Fe  Fe6  1  0.99528600  0.00222200  0.44461000  1
  Co  Co7  1  0.50000000  0.83232000  0.00000000  1
  Cu  Cu8  1  0.49822800  0.32815800  0.33771200  1
  Ni  Ni9  1  0.50009500  0.00453500  0.33512600  1
  Sb  Sb10  1  0.00000000  0.00000000  0.00000000  1
  Sb  Sb11  1  0.50000000  0.50000000  0.00000000  1
  Sb  Sb12  1  0.00000000  0.50000000  0.11379000  1
  Sb  Sb13  1  0.50000000  0.50000000  0.22759000  1
  Sb  Sb14  1  0.00032400  0.49527400  0.34272300  1
  Sb  Sb15  1  0.00000000  0.66768000  0.00000000  1
  Sb  Sb16  1  0.00000000  0.66768000  0.22759000  1
  Sb  Sb17  1  0.49764500  0.67207200  0.33905800  1
  Sb  Sb18  1  0.01876100  0.67640600  0.45370200  1
  Sb  Sb19  1  0.50000000  0.16768000  0.00000000  1
  Sb  Sb20  1  1.00000000  0.16768000  0.11379000  1
  Sb  Sb21  1  0.50000000  0.16768000  0.22759000  1
  Sb  Sb22  1  0.00066900  0.16911200  0.33801700  1
  Sb  Sb23  1  0.00000000  0.83232000  0.11379000  1
  Sb  Sb24  1  0.99657100  0.84343800  0.33763300  1
  Sb  Sb25  1  0.49698100  0.84634900  0.45153000  1
  Sb  Sb26  1  1.00000000  0.33232000  0.00000000  1
  Sb  Sb27  1  0.50000000  0.33232000  0.11379000  1
  Sb  Sb28  1  1.00000000  0.33232000  0.22759000  1
  Sb  Sb29  1  0.03201300  0.32348600  0.45387300  1
  Cl  Cl30  1  0.48372200  0.51497700  0.52028400  1
  O  O31  1  0.00000000  0.82836000  0.04494000  1
  O  O32  1  0.50000000  0.82836000  0.15874000  1
  O  O33  1  0.99980400  0.84474300  0.27065200  1
  O  O34  1  0.50508300  0.84079600  0.38085500  1
  O  O35  1  0.50000000  0.82836000  0.06885000  1
  O  O36  1  0.00000000  0.82836000  0.18264000  1
  O  O37  1  0.50024100  0.83303500  0.29415000  1
  O  O38  1  0.99048700  0.82786200  0.40563500  1
  O  O39  1  0.30253000  0.32836000  0.00000000  1
  O  O40  1  0.80253000  0.32836000  0.11379000  1
  O  O41  1  0.30253000  0.32836000  0.22759000  1
  O  O42  1  0.80668700  0.33780000  0.33809800  1
  O  O43  1  0.32041600  0.34099500  0.44394000  1
  O  O44  1  0.69747000  0.32836000  0.00000000  1
  O  O45  1  0.19747000  0.32836000  0.11379000  1
  O  O46  1  0.69747000  0.32836000  0.22759000  1
  O  O47  1  0.19159800  0.33728500  0.33627600  1
  O  O48  1  0.68881800  0.35212200  0.44400900  1
  O  O49  1  0.30253000  0.67164000  0.00000000  1
  O  O50  1  0.80253000  0.67164000  0.11379000  1
  O  O51  1  0.30253000  0.67164000  0.22759000  1
  O  O52  1  0.80931200  0.66501500  0.33782400  1
  O  O53  1  0.30902300  0.66034100  0.44149800  1
  O  O54  1  0.69747000  0.67164000  0.00000000  1
  O  O55  1  0.19747000  0.67164000  0.11379000  1
  O  O56  1  0.69747000  0.67164000  0.22759000  1
  O  O57  1  0.18714700  0.66719800  0.33701400  1
  O  O58  1  0.69338100  0.63366300  0.44077000  1
  O  O59  1  1.00000000  0.17164000  0.04494000  1
  O  O60  1  0.50000000  0.17164000  0.15874000  1
  O  O61  1  0.99978400  0.15531300  0.27066400  1
  O  O62  1  0.49323600  0.15954700  0.37354000  1
  O  O63  1  0.50000000  0.17164000  0.06885000  1
  O  O64  1  1.00000000  0.17164000  0.18264000  1
  O  O65  1  0.50049700  0.17084200  0.29349400  1
  O  O66  1  0.00487000  0.17520700  0.40585900  1
  O  O67  1  0.00000000  0.50000000  0.04332000  1
  O  O68  1  0.50000000  0.50000000  0.15711000  1
  O  O69  1  0.99950800  0.50002000  0.27169600  1
  O  O70  1  0.48564900  0.50407100  0.37948100  1
  O  O71  1  0.50000000  0.50000000  0.07048000  1
  O  O72  1  0.00000000  0.50000000  0.18427000  1
  O  O73  1  0.50030700  0.50540000  0.29531500  1
  O  O74  1  0.00884000  0.50079000  0.41056900  1
  O  O75  1  0.30966000  0.00000000  0.00000000  1
  O  O76  1  0.80966000  1.00000000  0.11379000  1
  O  O77  1  0.30966000  1.00000000  0.22759000  1
  O  O78  1  0.80454900  0.00481700  0.33972200  1
  O  O79  1  0.27853000  0.00196400  0.45391500  1
  O  O80  1  0.69034000  0.00000000  0.00000000  1
  O  O81  1  0.19034000  1.00000000  0.11379000  1
  O  O82  1  0.69034000  1.00000000  0.22759000  1
  O  O83  1  0.19289300  0.00180800  0.33955800  1
  O  O84  1  0.72261000  0.01768700  0.45426400  1
