# generated using pymatgen
data_MgTiMnVZnCrFeCoCuNiSb20ClO54
_symmetry_space_group_name_H-M   'P 1'
_cell_length_a   6.64615000
_cell_length_b   9.63085900
_cell_length_c   29.36041900
_cell_angle_alpha   89.95411500
_cell_angle_beta   89.95407600
_cell_angle_gamma   89.99303500
_symmetry_Int_Tables_number   1
_chemical_formula_structural   MgTiMnVZnCrFeCoCuNiSb20ClO54
_chemical_formula_sum
'Mg1 Ti1 Mn1 V1 Zn1 Cr1 Fe1 Co1 Cu1 Ni1 Sb20 Cl1 O54'
_cell_volume   1879.30440017
_cell_formula_units_Z   1
loop_
 _symmetry_equiv_pos_site_id
 _symmetry_equiv_pos_as_xyz
  1  'x, y, z'
loop_
 _atom_site_type_symbol
 _atom_site_label
 _atom_site_symmetry_multiplicity
 _atom_site_fract_x
 _atom_site_fract_y
 _atom_site_fract_z
 _atom_site_occupancy
  Mg  Mg0  1  0.50000000  1.00000000  0.88621000  1
  Ti  Ti1  1  0.00000000  0.33232000  0.77241000  1
  Mn  Mn2  1  0.00022900  0.17585400  0.66451700  1
  V  V3  1  0.50064700  0.52327600  0.55371700  1
  Zn  Zn4  1  0.00000000  0.00000000  0.00000000  1
  Cr  Cr5  1  0.49998300  0.31788700  0.66260400  1
  Fe  Fe6  1  0.50000000  0.16768000  0.77241000  1
  Co  Co7  1  0.50020000  0.00482200  0.65648200  1
  Cu  Cu8  1  0.00083500  0.65392900  0.54956400  1
  Ni  Ni9  1  0.50000000  0.83232000  0.77241000  1
  Sb  Sb10  1  0.00000000  1.00000000  0.77241000  1
  Sb  Sb11  1  0.00059600  0.00618400  0.57753800  1
  Sb  Sb12  1  0.50000000  0.50000000  0.00000000  1
  Sb  Sb13  1  0.00000000  0.50000000  0.88621000  1
  Sb  Sb14  1  0.50000000  0.50000000  0.77241000  1
  Sb  Sb15  1  0.99979200  0.48613800  0.66106700  1
  Sb  Sb16  1  0.00000000  0.33232000  0.00000000  1
  Sb  Sb17  1  0.50000000  0.33232000  0.88621000  1
  Sb  Sb18  1  0.00025300  0.36135000  0.54560700  1
  Sb  Sb19  1  0.50000000  0.83232000  0.00000000  1
  Sb  Sb20  1  0.00000000  0.83232000  0.88621000  1
  Sb  Sb21  1  0.00062000  0.83660700  0.66128600  1
  Sb  Sb22  1  0.50062000  0.83728500  0.54479600  1
  Sb  Sb23  1  0.50000000  0.16768000  0.00000000  1
  Sb  Sb24  1  0.00000000  0.16768000  0.88621000  1
  Sb  Sb25  1  0.50053900  0.20024500  0.54925700  1
  Sb  Sb26  1  0.00000000  0.66768000  0.00000000  1
  Sb  Sb27  1  0.50000000  0.66768000  0.88621000  1
  Sb  Sb28  1  0.00000000  0.66768000  0.77241000  1
  Sb  Sb29  1  0.50036000  0.67579700  0.66190300  1
  Cl  Cl30  1  0.50357700  0.46630700  0.47653000  1
  O  O31  1  0.00000000  0.17164000  0.95506000  1
  O  O32  1  0.50000000  0.17164000  0.84126000  1
  O  O33  1  0.99980400  0.15525700  0.72934800  1
  O  O34  1  0.50009600  0.16773100  0.61706300  1
  O  O35  1  0.50000000  0.17164000  0.93115000  1
  O  O36  1  0.00000000  0.17164000  0.81736000  1
  O  O37  1  0.50029500  0.16081200  0.69788100  1
  O  O38  1  0.00118100  0.20278600  0.59384400  1
  O  O39  1  0.30253000  0.67164000  0.00000000  1
  O  O40  1  0.80253000  0.67164000  0.88621000  1
  O  O41  1  0.30253000  0.67164000  0.77241000  1
  O  O42  1  0.81177900  0.66630300  0.66442400  1
  O  O43  1  0.30270100  0.64734900  0.54641000  1
  O  O44  1  0.69747000  0.67164000  0.00000000  1
  O  O45  1  0.19747000  0.67164000  0.88621000  1
  O  O46  1  0.69747000  0.67164000  0.77241000  1
  O  O47  1  0.18867400  0.66613100  0.66450600  1
  O  O48  1  0.69885600  0.64723900  0.54667100  1
  O  O49  1  0.30253000  0.32836000  0.00000000  1
  O  O50  1  0.80253000  0.32836000  0.88621000  1
  O  O51  1  0.30253000  0.32836000  0.77241000  1
  O  O52  1  0.79766100  0.33317900  0.66412900  1
  O  O53  1  0.31266800  0.36477100  0.56021400  1
  O  O54  1  0.69747000  0.32836000  0.00000000  1
  O  O55  1  0.19747000  0.32836000  0.88621000  1
  O  O56  1  0.69747000  0.32836000  0.77241000  1
  O  O57  1  0.20214800  0.33313100  0.66414500  1
  O  O58  1  0.68876800  0.36407700  0.56044900  1
  O  O59  1  0.00000000  0.82836000  0.95506000  1
  O  O60  1  0.50000000  0.82836000  0.84126000  1
  O  O61  1  0.99978400  0.84468700  0.72933600  1
  O  O62  1  0.50100300  0.83719600  0.61384500  1
  O  O63  1  0.50000000  0.82836000  0.93115000  1
  O  O64  1  0.00000000  0.82836000  0.81736000  1
  O  O65  1  0.49987800  0.84647100  0.69974400  1
  O  O66  1  0.00052100  0.80869000  0.59416600  1
  O  O67  1  0.00000000  0.50000000  0.95668000  1
  O  O68  1  0.50000000  0.50000000  0.84289000  1
  O  O69  1  0.99950800  0.49998000  0.72830400  1
  O  O70  1  0.49977800  0.51620500  0.61917600  1
  O  O71  1  0.50000000  0.50000000  0.92952000  1
  O  O72  1  0.00000000  0.50000000  0.81573000  1
  O  O73  1  0.49999000  0.50225500  0.70351400  1
  O  O74  1  0.00033500  0.50118100  0.59549000  1
  O  O75  1  0.30966000  0.00000000  0.00000000  1
  O  O76  1  0.80966000  1.00000000  0.88621000  1
  O  O77  1  0.30966000  1.00000000  0.77241000  1
  O  O78  1  0.80954300  0.00031300  0.64928700  1
  O  O79  1  0.25049600  0.99694700  0.54384900  1
  O  O80  1  0.69034000  0.00000000  0.00000000  1
  O  O81  1  0.19034000  1.00000000  0.88621000  1
  O  O82  1  0.69034000  1.00000000  0.77241000  1
  O  O83  1  0.19215700  0.00017200  0.64936000  1
  O  O84  1  0.75079200  0.99697100  0.54388000  1
