# generated using pymatgen
data_MgTiMnVZnCrFeCoCuNiSb20ClO54
_symmetry_space_group_name_H-M   'P 1'
_cell_length_a   6.67239200
_cell_length_b   9.61861800
_cell_length_c   29.88322300
_cell_angle_alpha   89.81349400
_cell_angle_beta   89.89340400
_cell_angle_gamma   89.99744600
_symmetry_Int_Tables_number   1
_chemical_formula_structural   MgTiMnVZnCrFeCoCuNiSb20ClO54
_chemical_formula_sum
'Mg1 Ti1 Mn1 V1 Zn1 Cr1 Fe1 Co1 Cu1 Ni1 Sb20 Cl1 O54'
_cell_volume   1917.86755913
_cell_formula_units_Z   1
loop_
 _symmetry_equiv_pos_site_id
 _symmetry_equiv_pos_as_xyz
  1  'x, y, z'
loop_
 _atom_site_type_symbol
 _atom_site_label
 _atom_site_symmetry_multiplicity
 _atom_site_fract_x
 _atom_site_fract_y
 _atom_site_fract_z
 _atom_site_occupancy
  Mg  Mg0  1  0.50000000  0.83232000  0.77241000  1
  Ti  Ti1  1  0.50066300  0.68311800  0.66573100  1
  Mn  Mn2  1  0.50000000  0.50000000  0.77241000  1
  V  V3  1  0.50224300  0.48372600  0.55282500  1
  Zn  Zn4  1  0.00281700  0.64744500  0.55917100  1
  Cr  Cr5  1  0.00008400  0.16315900  0.66597800  1
  Fe  Fe6  1  0.00000000  0.33232000  0.77241000  1
  Co  Co7  1  0.50000000  0.83232000  0.00000000  1
  Cu  Cu8  1  0.00225500  0.35066700  0.55781600  1
  Ni  Ni9  1  0.50058700  0.99511500  0.65878500  1
  Sb  Sb10  1  0.00000000  0.00000000  0.00000000  1
  Sb  Sb11  1  0.50000000  0.00000000  0.88621000  1
  Sb  Sb12  1  0.00000000  0.00000000  0.77241000  1
  Sb  Sb13  1  0.00208800  0.01843000  0.57572300  1
  Sb  Sb14  1  0.50000000  0.50000000  0.00000000  1
  Sb  Sb15  1  0.00000000  0.50000000  0.88621000  1
  Sb  Sb16  1  0.00057100  0.49505000  0.66331500  1
  Sb  Sb17  1  0.00000000  0.33232000  0.00000000  1
  Sb  Sb18  1  0.50000000  0.33232000  0.88621000  1
  Sb  Sb19  1  0.50042000  0.33497800  0.66284500  1
  Sb  Sb20  1  0.00000000  0.83232000  0.88621000  1
  Sb  Sb21  1  0.00136300  0.83409200  0.66152700  1
  Sb  Sb22  1  0.50297200  0.79716800  0.54878300  1
  Sb  Sb23  1  0.50000000  0.16768000  0.00000000  1
  Sb  Sb24  1  0.00000000  0.16768000  0.88621000  1
  Sb  Sb25  1  0.50000000  0.16768000  0.77241000  1
  Sb  Sb26  1  0.50214800  0.17500600  0.54930300  1
  Sb  Sb27  1  0.00000000  0.66768000  0.00000000  1
  Sb  Sb28  1  0.50000000  0.66768000  0.88621000  1
  Sb  Sb29  1  0.00000000  0.66768000  0.77241000  1
  Cl  Cl30  1  0.50464000  0.50319600  0.47570800  1
  O  O31  1  0.00000000  0.17164000  0.95506000  1
  O  O32  1  0.50000000  0.17164000  0.84126000  1
  O  O33  1  0.99980400  0.15525700  0.72934800  1
  O  O34  1  0.50012300  0.17389900  0.61771800  1
  O  O35  1  0.50000000  0.17164000  0.93115000  1
  O  O36  1  0.00000000  0.17164000  0.81736000  1
  O  O37  1  0.50025600  0.16558800  0.70405900  1
  O  O38  1  0.99974700  0.19623900  0.60349800  1
  O  O39  1  0.30253000  0.67164000  0.00000000  1
  O  O40  1  0.80253000  0.67164000  0.88621000  1
  O  O41  1  0.30253000  0.67164000  0.77241000  1
  O  O42  1  0.80942000  0.67057000  0.66482500  1
  O  O43  1  0.30296700  0.63858600  0.55188900  1
  O  O44  1  0.69747000  0.67164000  0.00000000  1
  O  O45  1  0.19747000  0.67164000  0.88621000  1
  O  O46  1  0.69747000  0.67164000  0.77241000  1
  O  O47  1  0.19244200  0.67019600  0.66522700  1
  O  O48  1  0.70345700  0.63949700  0.55194500  1
  O  O49  1  0.30253000  0.32836000  0.00000000  1
  O  O50  1  0.80253000  0.32836000  0.88621000  1
  O  O51  1  0.30253000  0.32836000  0.77241000  1
  O  O52  1  0.80800400  0.32925800  0.66766800  1
  O  O53  1  0.30401000  0.35810600  0.55058400  1
  O  O54  1  0.69747000  0.32836000  0.00000000  1
  O  O55  1  0.19747000  0.32836000  0.88621000  1
  O  O56  1  0.69747000  0.32836000  0.77241000  1
  O  O57  1  0.19270500  0.32901900  0.66775400  1
  O  O58  1  0.70126700  0.35843400  0.55073200  1
  O  O59  1  0.00000000  0.82836000  0.95506000  1
  O  O60  1  0.50000000  0.82836000  0.84126000  1
  O  O61  1  0.99978400  0.84468700  0.72933600  1
  O  O62  1  0.50029600  0.81490300  0.61627300  1
  O  O63  1  0.50000000  0.82836000  0.93115000  1
  O  O64  1  0.00000000  0.82836000  0.81736000  1
  O  O65  1  0.50028300  0.82751900  0.70164800  1
  O  O66  1  0.00514800  0.82215700  0.59439500  1
  O  O67  1  0.00000000  0.50000000  0.95668000  1
  O  O68  1  0.50000000  0.50000000  0.84289000  1
  O  O69  1  0.99950800  0.49998000  0.72830400  1
  O  O70  1  0.50151600  0.49296600  0.61873400  1
  O  O71  1  0.50000000  0.50000000  0.92952000  1
  O  O72  1  0.00000000  0.50000000  0.81573000  1
  O  O73  1  0.50025300  0.50380400  0.70345700  1
  O  O74  1  0.00314100  0.49796700  0.60041800  1
  O  O75  1  0.30966000  0.00000000  0.00000000  1
  O  O76  1  0.80966000  0.00000000  0.88621000  1
  O  O77  1  0.30966000  0.00000000  0.77241000  1
  O  O78  1  0.81388200  0.99925600  0.65532600  1
  O  O79  1  0.25175400  0.02191100  0.54444000  1
  O  O80  1  0.69034000  0.00000000  0.00000000  1
  O  O81  1  0.19034000  0.00000000  0.88621000  1
  O  O82  1  0.69034000  0.00000000  0.77241000  1
  O  O83  1  0.18698900  0.00007000  0.65556200  1
  O  O84  1  0.75083200  0.01760000  0.54525600  1
