# generated using pymatgen
data_MgTiMnVZnCrFeCoCuNiSb20ClO54
_symmetry_space_group_name_H-M   'P 1'
_cell_length_a   6.64882800
_cell_length_b   9.55139000
_cell_length_c   28.83824800
_cell_angle_alpha   89.86202200
_cell_angle_beta   89.98480700
_cell_angle_gamma   89.98443200
_symmetry_Int_Tables_number   1
_chemical_formula_structural   MgTiMnVZnCrFeCoCuNiSb20ClO54
_chemical_formula_sum
'Mg1 Ti1 Mn1 V1 Zn1 Cr1 Fe1 Co1 Cu1 Ni1 Sb20 Cl1 O54'
_cell_volume   1831.38333721
_cell_formula_units_Z   1
loop_
 _symmetry_equiv_pos_site_id
 _symmetry_equiv_pos_as_xyz
  1  'x, y, z'
loop_
 _atom_site_type_symbol
 _atom_site_label
 _atom_site_symmetry_multiplicity
 _atom_site_fract_x
 _atom_site_fract_y
 _atom_site_fract_z
 _atom_site_occupancy
  Mg  Mg0  1  0.50000000  0.00000000  0.88621000  1
  Ti  Ti1  1  0.00000000  0.16768000  0.88621000  1
  Mn  Mn2  1  1.00000000  0.50000000  0.88621000  1
  V  V3  1  0.49788400  0.50411200  0.55658000  1
  Zn  Zn4  1  0.50000000  0.83232000  0.77241000  1
  Cr  Cr5  1  1.00000000  0.66768000  0.00000000  1
  Fe  Fe6  1  0.50001000  0.34034700  0.66162500  1
  Co  Co7  1  0.49976000  0.66076600  0.66061300  1
  Cu  Cu8  1  0.99885900  0.81423200  0.66299600  1
  Ni  Ni9  1  0.00000000  0.33232000  0.77241000  1
  Sb  Sb10  1  0.00000000  0.00000000  0.00000000  1
  Sb  Sb11  1  0.00000000  0.00000000  0.77241000  1
  Sb  Sb12  1  0.50007700  0.99695000  0.65404300  1
  Sb  Sb13  1  0.99793100  0.99123000  0.57858200  1
  Sb  Sb14  1  0.50000000  0.50000000  1.00000000  1
  Sb  Sb15  1  0.50000000  0.50000000  0.77241000  1
  Sb  Sb16  1  0.99971300  0.51235500  0.65951400  1
  Sb  Sb17  1  0.50000000  0.66768000  0.88621000  1
  Sb  Sb18  1  0.00000000  0.66768000  0.77241000  1
  Sb  Sb19  1  0.00193100  0.66291200  0.53791200  1
  Sb  Sb20  1  0.50000000  0.16768000  1.00000000  1
  Sb  Sb21  1  0.50000000  0.16768000  0.77241000  1
  Sb  Sb22  1  0.99988200  0.18211800  0.66223200  1
  Sb  Sb23  1  0.49847200  0.18239200  0.54131900  1
  Sb  Sb24  1  0.50000000  0.83232000  1.00000000  1
  Sb  Sb25  1  0.00000000  0.83232000  0.88621000  1
  Sb  Sb26  1  0.49783100  0.82644200  0.53844600  1
  Sb  Sb27  1  0.00000000  0.33232000  0.00000000  1
  Sb  Sb28  1  0.50000000  0.33232000  0.88621000  1
  Sb  Sb29  1  0.00299000  0.33967000  0.53689800  1
  Cl  Cl30  1  0.45842100  0.49179000  0.47244700  1
  O  O31  1  0.00000000  0.82836000  0.95506000  1
  O  O32  1  0.50000000  0.82836000  0.84126000  1
  O  O33  1  0.00019600  0.84474300  0.72934800  1
  O  O34  1  0.50379000  0.84331700  0.60735800  1
  O  O35  1  0.50000000  0.82836000  0.93115000  1
  O  O36  1  0.00000000  0.82836000  0.81736000  1
  O  O37  1  0.49919400  0.83992300  0.69711500  1
  O  O38  1  0.99558900  0.79271800  0.59263300  1
  O  O39  1  0.69747000  0.32836000  0.00000000  1
  O  O40  1  0.19747000  0.32836000  0.88621000  1
  O  O41  1  0.69747000  0.32836000  0.77241000  1
  O  O42  1  0.19405000  0.33934800  0.66023400  1
  O  O43  1  0.68833000  0.35313300  0.55007400  1
  O  O44  1  0.30253000  0.32836000  1.00000000  1
  O  O45  1  0.80253000  0.32836000  0.88621000  1
  O  O46  1  0.30253000  0.32836000  0.77241000  1
  O  O47  1  0.80578600  0.33988000  0.66057800  1
  O  O48  1  0.30721200  0.34838800  0.55514300  1
  O  O49  1  0.69747000  0.67164000  0.00000000  1
  O  O50  1  0.19747000  0.67164000  0.88621000  1
  O  O51  1  0.69747000  0.67164000  0.77241000  1
  O  O52  1  0.21140300  0.66211300  0.65938800  1
  O  O53  1  0.68538800  0.64874800  0.54848400  1
  O  O54  1  0.30253000  0.67164000  1.00000000  1
  O  O55  1  0.80253000  0.67164000  0.88621000  1
  O  O56  1  0.30253000  0.67164000  0.77241000  1
  O  O57  1  0.78791900  0.66130100  0.65953400  1
  O  O58  1  0.31107800  0.65376800  0.55295800  1
  O  O59  1  0.00000000  0.17164000  0.95506000  1
  O  O60  1  0.50000000  0.17164000  0.84126000  1
  O  O61  1  0.00021600  0.15531300  0.72933600  1
  O  O62  1  0.50263700  0.16595400  0.61133100  1
  O  O63  1  0.50000000  0.17164000  0.93115000  1
  O  O64  1  0.00000000  0.17164000  0.81736000  1
  O  O65  1  0.49999600  0.16107600  0.70036000  1
  O  O66  1  0.99373200  0.19763600  0.58998700  1
  O  O67  1  1.00000000  0.50000000  0.95668000  1
  O  O68  1  0.50000000  0.50000000  0.84289000  1
  O  O69  1  0.00049200  0.50002000  0.72830400  1
  O  O70  1  0.50094100  0.49992200  0.61674000  1
  O  O71  1  0.50000000  0.50000000  0.92952000  1
  O  O72  1  0.00000000  0.50000000  0.81573000  1
  O  O73  1  0.49897100  0.49725600  0.70430000  1
  O  O74  1  0.99667800  0.49985700  0.58436200  1
  O  O75  1  0.69034000  1.00000000  0.00000000  1
  O  O76  1  0.19034000  0.00000000  0.88621000  1
  O  O77  1  0.69034000  1.00000000  0.77241000  1
  O  O78  1  0.18371400  0.01631500  0.64489600  1
  O  O79  1  0.75855000  0.99978000  0.54076000  1
  O  O80  1  0.30966000  0.00000000  1.00000000  1
  O  O81  1  0.80966000  1.00000000  0.88621000  1
  O  O82  1  0.30966000  0.00000000  0.77241000  1
  O  O83  1  0.81719000  0.01524900  0.64537500  1
  O  O84  1  0.23945000  0.99821500  0.54131100  1
