# generated using pymatgen
data_MgTiMnVZnCrFeCoCuNiSb20ClO54
_symmetry_space_group_name_H-M   'P 1'
_cell_length_a   6.67662000
_cell_length_b   9.57457600
_cell_length_c   29.97948900
_cell_angle_alpha   89.85144400
_cell_angle_beta   89.98459100
_cell_angle_gamma   89.95387500
_symmetry_Int_Tables_number   1
_chemical_formula_structural   MgTiMnVZnCrFeCoCuNiSb20ClO54
_chemical_formula_sum
'Mg1 Ti1 Mn1 V1 Zn1 Cr1 Fe1 Co1 Cu1 Ni1 Sb20 Cl1 O54'
_cell_volume   1916.45585518
_cell_formula_units_Z   1
loop_
 _symmetry_equiv_pos_site_id
 _symmetry_equiv_pos_as_xyz
  1  'x, y, z'
loop_
 _atom_site_type_symbol
 _atom_site_label
 _atom_site_symmetry_multiplicity
 _atom_site_fract_x
 _atom_site_fract_y
 _atom_site_fract_z
 _atom_site_occupancy
  Mg  Mg0  1  0.50011100  0.16870700  0.43725300  1
  Ti  Ti1  1  0.50000000  0.16768000  0.22759000  1
  Mn  Mn2  1  0.00000000  0.33232000  0.22759000  1
  V  V3  1  0.50818100  0.48335500  0.43819000  1
  Zn  Zn4  1  0.50000000  0.50000000  0.22759000  1
  Cr  Cr5  1  0.49904800  0.64577200  0.33509200  1
  Fe  Fe6  1  0.50000000  0.83232000  0.00000000  1
  Co  Co7  1  0.50023700  0.33735700  0.33347900  1
  Cu  Cu8  1  0.99984600  0.81727900  0.33535200  1
  Ni  Ni9  1  0.00074600  0.18322100  0.33272400  1
  Sb  Sb10  1  0.00000000  0.00000000  0.00000000  1
  Sb  Sb11  1  0.50000000  1.00000000  0.11379000  1
  Sb  Sb12  1  0.00000000  0.00000000  0.22759000  1
  Sb  Sb13  1  0.49789400  0.00374600  0.33909700  1
  Sb  Sb14  1  0.99136700  0.00792600  0.40882000  1
  Sb  Sb15  1  0.50000000  0.50000000  0.00000000  1
  Sb  Sb16  1  0.00000000  0.50000000  0.11379000  1
  Sb  Sb17  1  0.99981300  0.49727900  0.33856900  1
  Sb  Sb18  1  0.00000000  0.33232000  0.00000000  1
  Sb  Sb19  1  0.50000000  0.33232000  0.11379000  1
  Sb  Sb20  1  0.01437900  0.32982500  0.45168200  1
  Sb  Sb21  1  0.00000000  0.83232000  0.11379000  1
  Sb  Sb22  1  0.50000000  0.83232000  0.22759000  1
  Sb  Sb23  1  0.49274700  0.81766700  0.44569900  1
  Sb  Sb24  1  0.50000000  0.16768000  0.00000000  1
  Sb  Sb25  1  0.00000000  0.16768000  0.11379000  1
  Sb  Sb26  1  0.00000000  0.66768000  0.00000000  1
  Sb  Sb27  1  0.50000000  0.66768000  0.11379000  1
  Sb  Sb28  1  0.00000000  0.66768000  0.22759000  1
  Sb  Sb29  1  0.00179300  0.66383800  0.45232700  1
  Cl  Cl30  1  0.47508600  0.51663700  0.51606300  1
  O  O31  1  0.00000000  0.17164000  0.04494000  1
  O  O32  1  0.50000000  0.17164000  0.15874000  1
  O  O33  1  0.00019600  0.15525700  0.27065200  1
  O  O34  1  0.50119200  0.17970100  0.37301600  1
  O  O35  1  0.50000000  0.17164000  0.06885000  1
  O  O36  1  0.00000000  0.17164000  0.18264000  1
  O  O37  1  0.49971500  0.14812200  0.28987100  1
  O  O38  1  0.99309300  0.21061000  0.39791100  1
  O  O39  1  0.69747000  0.67164000  1.00000000  1
  O  O40  1  0.19747000  0.67164000  0.11379000  1
  O  O41  1  0.69747000  0.67164000  0.22759000  1
  O  O42  1  0.20682400  0.65508500  0.33720600  1
  O  O43  1  0.68295600  0.64342200  0.43998600  1
  O  O44  1  0.30253000  0.67164000  0.00000000  1
  O  O45  1  0.80253000  0.67164000  0.11379000  1
  O  O46  1  0.30253000  0.67164000  0.22759000  1
  O  O47  1  0.79242300  0.65455300  0.33721000  1
  O  O48  1  0.30347400  0.65147200  0.43723200  1
  O  O49  1  0.69747000  0.32836000  1.00000000  1
  O  O50  1  0.19747000  0.32836000  0.11379000  1
  O  O51  1  0.69747000  0.32836000  0.22759000  1
  O  O52  1  0.20425900  0.33902700  0.33315200  1
  O  O53  1  0.68598800  0.35181800  0.44363400  1
  O  O54  1  0.30253000  0.32836000  0.00000000  1
  O  O55  1  0.80253000  0.32836000  0.11379000  1
  O  O56  1  0.30253000  0.32836000  0.22759000  1
  O  O57  1  0.79618300  0.33927800  0.33259000  1
  O  O58  1  0.31682800  0.34439700  0.44174700  1
  O  O59  1  0.00000000  0.82836000  0.04494000  1
  O  O60  1  0.50000000  0.82836000  0.15874000  1
  O  O61  1  0.00021600  0.84468700  0.27066400  1
  O  O62  1  0.50032000  0.82664300  0.37748000  1
  O  O63  1  0.50000000  0.82836000  0.06885000  1
  O  O64  1  0.00000000  0.82836000  0.18264000  1
  O  O65  1  0.49987000  0.83163700  0.29464400  1
  O  O66  1  0.98677200  0.80392700  0.40361000  1
  O  O67  1  0.00000000  0.50000000  0.04332000  1
  O  O68  1  0.50000000  0.50000000  0.15711000  1
  O  O69  1  0.00049200  0.49998000  0.27169600  1
  O  O70  1  0.50096500  0.50215000  0.37837400  1
  O  O71  1  0.50000000  0.50000000  0.07048000  1
  O  O72  1  0.00000000  0.50000000  0.18427000  1
  O  O73  1  0.49985200  0.50786800  0.29703100  1
  O  O74  1  0.99833000  0.49757400  0.40880800  1
  O  O75  1  0.69034000  0.00000000  1.00000000  1
  O  O76  1  0.19034000  1.00000000  0.11379000  1
  O  O77  1  0.69034000  0.00000000  0.22759000  1
  O  O78  1  0.18204600  0.00261900  0.34640000  1
  O  O79  1  0.73885400  0.01882300  0.44320400  1
  O  O80  1  0.30966000  1.00000000  0.00000000  1
  O  O81  1  0.80966000  0.00000000  0.11379000  1
  O  O82  1  0.30966000  1.00000000  0.22759000  1
  O  O83  1  0.81632800  0.00290400  0.34660400  1
  O  O84  1  0.24736000  0.01399700  0.44255500  1
