# generated using pymatgen
data_MgTiMnVZnCrFeCoCuNiSb20ClO54
_symmetry_space_group_name_H-M   'P 1'
_cell_length_a   6.70721900
_cell_length_b   9.52261300
_cell_length_c   29.08477200
_cell_angle_alpha   89.89130800
_cell_angle_beta   89.92667800
_cell_angle_gamma   89.75895900
_symmetry_Int_Tables_number   1
_chemical_formula_structural   MgTiMnVZnCrFeCoCuNiSb20ClO54
_chemical_formula_sum
'Mg1 Ti1 Mn1 V1 Zn1 Cr1 Fe1 Co1 Cu1 Ni1 Sb20 Cl1 O54'
_cell_volume   1857.63039978
_cell_formula_units_Z   1
loop_
 _symmetry_equiv_pos_site_id
 _symmetry_equiv_pos_as_xyz
  1  'x, y, z'
loop_
 _atom_site_type_symbol
 _atom_site_label
 _atom_site_symmetry_multiplicity
 _atom_site_fract_x
 _atom_site_fract_y
 _atom_site_fract_z
 _atom_site_occupancy
  Mg  Mg0  1  0.50199700  0.00065200  0.65683300  1
  Ti  Ti1  1  0.98556200  0.99635100  0.57133700  1
  Mn  Mn2  1  0.99812300  0.65252300  0.55599900  1
  V  V3  1  0.51624600  0.50697900  0.54580300  1
  Zn  Zn4  1  0.00000000  0.50000000  0.88621000  1
  Cr  Cr5  1  0.50000000  0.16768000  0.00000000  1
  Fe  Fe6  1  0.00082600  0.49878600  0.66311400  1
  Co  Co7  1  1.00000000  1.00000000  0.77241000  1
  Cu  Cu8  1  0.50000000  1.00000000  0.88621000  1
  Ni  Ni9  1  0.00000000  0.66768000  0.77241000  1
  Sb  Sb10  1  0.00000000  0.00000000  0.00000000  1
  Sb  Sb11  1  0.50000000  0.50000000  0.00000000  1
  Sb  Sb12  1  0.50000000  0.50000000  0.77241000  1
  Sb  Sb13  1  1.00000000  0.33232000  0.00000000  1
  Sb  Sb14  1  0.50000000  0.33232000  0.88621000  1
  Sb  Sb15  1  1.00000000  0.33232000  0.77241000  1
  Sb  Sb16  1  0.50389700  0.32731100  0.65504500  1
  Sb  Sb17  1  0.01853800  0.34857500  0.54529500  1
  Sb  Sb18  1  0.50000000  0.83232000  0.00000000  1
  Sb  Sb19  1  0.00000000  0.83232000  0.88621000  1
  Sb  Sb20  1  0.50000000  0.83232000  0.77241000  1
  Sb  Sb21  1  0.99864200  0.82976400  0.66402000  1
  Sb  Sb22  1  0.45775300  0.82914000  0.54115100  1
  Sb  Sb23  1  1.00000000  0.16768000  0.88621000  1
  Sb  Sb24  1  0.50000000  0.16768000  0.77241000  1
  Sb  Sb25  1  0.00761400  0.16916400  0.66133000  1
  Sb  Sb26  1  0.51270400  0.18388900  0.54155200  1
  Sb  Sb27  1  0.00000000  0.66768000  0.00000000  1
  Sb  Sb28  1  0.50000000  0.66768000  0.88621000  1
  Sb  Sb29  1  0.50023200  0.67482900  0.65836900  1
  Cl  Cl30  1  0.48974400  0.46095500  0.46917100  1
  O  O31  1  1.00000000  0.17164000  0.95506000  1
  O  O32  1  0.50000000  0.17164000  0.84126000  1
  O  O33  1  0.99980400  0.15525700  0.72934800  1
  O  O34  1  0.50339800  0.16280800  0.61113700  1
  O  O35  1  0.50000000  0.17164000  0.93115000  1
  O  O36  1  1.00000000  0.17164000  0.81736000  1
  O  O37  1  0.50307200  0.17043300  0.70279800  1
  O  O38  1  0.02601500  0.18640300  0.59142300  1
  O  O39  1  0.30253000  0.67164000  0.00000000  1
  O  O40  1  0.80253000  0.67164000  0.88621000  1
  O  O41  1  0.30253000  0.67164000  0.77241000  1
  O  O42  1  0.80117000  0.66767300  0.66183700  1
  O  O43  1  0.29667000  0.64911300  0.54367700  1
  O  O44  1  0.69747000  0.67164000  0.00000000  1
  O  O45  1  0.19747000  0.67164000  0.88621000  1
  O  O46  1  0.69747000  0.67164000  0.77241000  1
  O  O47  1  0.19793300  0.66866400  0.65996800  1
  O  O48  1  0.71121900  0.62834900  0.54155100  1
  O  O49  1  0.30253000  0.32836000  0.00000000  1
  O  O50  1  0.80253000  0.32836000  0.88621000  1
  O  O51  1  0.30253000  0.32836000  0.77241000  1
  O  O52  1  0.80693600  0.32796400  0.66090200  1
  O  O53  1  0.32543500  0.35654600  0.55651600  1
  O  O54  1  0.69747000  0.32836000  0.00000000  1
  O  O55  1  0.19747000  0.32836000  0.88621000  1
  O  O56  1  0.69747000  0.32836000  0.77241000  1
  O  O57  1  0.20196000  0.33019600  0.66252800  1
  O  O58  1  0.69585900  0.34648500  0.55347600  1
  O  O59  1  0.00000000  0.82836000  0.95506000  1
  O  O60  1  0.50000000  0.82836000  0.84126000  1
  O  O61  1  0.99978400  0.84468700  0.72933600  1
  O  O62  1  0.49468500  0.82999900  0.61059400  1
  O  O63  1  0.50000000  0.82836000  0.93115000  1
  O  O64  1  1.00000000  0.82836000  0.81736000  1
  O  O65  1  0.50277400  0.83604500  0.70215700  1
  O  O66  1  0.97406400  0.81435800  0.59539300  1
  O  O67  1  0.00000000  0.50000000  0.95668000  1
  O  O68  1  0.50000000  0.50000000  0.84289000  1
  O  O69  1  0.99950800  0.49998000  0.72830400  1
  O  O70  1  0.50756600  0.50863100  0.61522500  1
  O  O71  1  0.50000000  0.50000000  0.92952000  1
  O  O72  1  0.00000000  0.50000000  0.81573000  1
  O  O73  1  0.50081300  0.49683700  0.70126100  1
  O  O74  1  0.00477000  0.48924500  0.59502400  1
  O  O75  1  0.30966000  0.00000000  0.00000000  1
  O  O76  1  0.80966000  1.00000000  0.88621000  1
  O  O77  1  0.30966000  1.00000000  0.77241000  1
  O  O78  1  0.81748400  0.00629600  0.64828600  1
  O  O79  1  0.21654900  0.96356300  0.53918500  1
  O  O80  1  0.69034000  0.00000000  0.00000000  1
  O  O81  1  0.19034000  1.00000000  0.88621000  1
  O  O82  1  0.69034000  1.00000000  0.77241000  1
  O  O83  1  0.18979800  0.99883300  0.65191800  1
  O  O84  1  0.77102300  0.02843200  0.53827200  1
