# generated using pymatgen
data_MgTiMnVZnCrFeCoCuNiSb20ClO54
_symmetry_space_group_name_H-M   'P 1'
_cell_length_a   6.67188300
_cell_length_b   9.63663200
_cell_length_c   28.76136800
_cell_angle_alpha   89.74652700
_cell_angle_beta   90.53764700
_cell_angle_gamma   89.66149600
_symmetry_Int_Tables_number   1
_chemical_formula_structural   MgTiMnVZnCrFeCoCuNiSb20ClO54
_chemical_formula_sum
'Mg1 Ti1 Mn1 V1 Zn1 Cr1 Fe1 Co1 Cu1 Ni1 Sb20 Cl1 O54'
_cell_volume   1849.06499644
_cell_formula_units_Z   1
loop_
 _symmetry_equiv_pos_site_id
 _symmetry_equiv_pos_as_xyz
  1  'x, y, z'
loop_
 _atom_site_type_symbol
 _atom_site_label
 _atom_site_symmetry_multiplicity
 _atom_site_fract_x
 _atom_site_fract_y
 _atom_site_fract_z
 _atom_site_occupancy
  Mg  Mg0  1  0.50000000  0.16768000  0.77241000  1
  Ti  Ti1  1  1.00000000  0.16768000  0.88621000  1
  Mn  Mn2  1  0.98749700  0.49143100  0.66432500  1
  V  V3  1  0.50553500  0.47944100  0.55721000  1
  Zn  Zn4  1  0.50000000  0.66768000  0.88621000  1
  Cr  Cr5  1  1.00000000  0.33232000  0.77241000  1
  Fe  Fe6  1  0.48761800  0.99857400  0.65249400  1
  Co  Co7  1  0.50000000  0.50000000  0.77241000  1
  Cu  Cu8  1  0.43208400  0.32158000  0.69148000  1
  Ni  Ni9  1  0.00000000  0.50000000  0.88621000  1
  Sb  Sb10  1  0.00000000  0.00000000  0.00000000  1
  Sb  Sb11  1  0.50000000  0.00000000  0.88621000  1
  Sb  Sb12  1  1.00000000  0.00000000  0.77241000  1
  Sb  Sb13  1  0.02852100  0.99409300  0.57592400  1
  Sb  Sb14  1  0.50000000  0.50000000  0.00000000  1
  Sb  Sb15  1  1.00000000  0.33232000  0.00000000  1
  Sb  Sb16  1  0.50000000  0.33232000  0.88621000  1
  Sb  Sb17  1  0.00827300  0.32795900  0.53749500  1
  Sb  Sb18  1  0.50000000  0.83232000  0.00000000  1
  Sb  Sb19  1  0.00000000  0.83232000  0.88621000  1
  Sb  Sb20  1  0.50000000  0.83232000  0.77241000  1
  Sb  Sb21  1  0.98390500  0.81214300  0.65800800  1
  Sb  Sb22  1  0.48374200  0.79928600  0.54278800  1
  Sb  Sb23  1  0.50000000  0.16768000  0.00000000  1
  Sb  Sb24  1  0.89897100  0.20010700  0.66224000  1
  Sb  Sb25  1  0.54359600  0.15781300  0.53545900  1
  Sb  Sb26  1  0.00000000  0.66768000  0.00000000  1
  Sb  Sb27  1  1.00000000  0.66768000  0.77241000  1
  Sb  Sb28  1  0.48708600  0.65640600  0.66142400  1
  Sb  Sb29  1  0.98217400  0.64459000  0.53507300  1
  Cl  Cl30  1  0.61556200  0.48184100  0.47493500  1
  O  O31  1  1.00000000  0.17164000  0.95506000  1
  O  O32  1  0.50000000  0.17164000  0.84126000  1
  O  O33  1  0.99980400  0.15525700  0.72934800  1
  O  O34  1  0.49215400  0.11119400  0.59986200  1
  O  O35  1  0.50000000  0.17164000  0.93115000  1
  O  O36  1  1.00000000  0.17164000  0.81736000  1
  O  O37  1  0.51477700  0.13771100  0.69548500  1
  O  O38  1  0.07248700  0.19253500  0.58785100  1
  O  O39  1  0.30253000  0.67164000  0.00000000  1
  O  O40  1  0.80253000  0.67164000  0.88621000  1
  O  O41  1  0.30253000  0.67164000  0.77241000  1
  O  O42  1  0.79502400  0.65601200  0.66328700  1
  O  O43  1  0.31487000  0.62885200  0.53740800  1
  O  O44  1  0.69747000  0.67164000  0.00000000  1
  O  O45  1  0.19747000  0.67164000  0.88621000  1
  O  O46  1  0.69747000  0.67164000  0.77241000  1
  O  O47  1  0.17791400  0.65727600  0.66437400  1
  O  O48  1  0.68797800  0.62727400  0.56016700  1
  O  O49  1  0.30253000  0.32836000  0.00000000  1
  O  O50  1  0.80253000  0.32836000  0.88621000  1
  O  O51  1  0.30253000  0.32836000  0.77241000  1
  O  O52  1  0.76778700  0.38917400  0.66154700  1
  O  O53  1  0.33114500  0.34847500  0.54020900  1
  O  O54  1  0.69747000  0.32836000  0.00000000  1
  O  O55  1  0.19747000  0.32836000  0.88621000  1
  O  O56  1  0.69747000  0.32836000  0.77241000  1
  O  O57  1  0.14759200  0.34037600  0.66444900  1
  O  O58  1  0.69949600  0.32893100  0.56113700  1
  O  O59  1  0.00000000  0.82836000  0.95506000  1
  O  O60  1  0.50000000  0.82836000  0.84126000  1
  O  O61  1  0.99978400  0.84468700  0.72933600  1
  O  O62  1  0.46106700  0.80338300  0.61245000  1
  O  O63  1  0.50000000  0.82836000  0.93115000  1
  O  O64  1  1.00000000  0.82836000  0.81736000  1
  O  O65  1  0.49510100  0.83001500  0.70099900  1
  O  O66  1  0.99699700  0.78545000  0.58663000  1
  O  O67  1  0.00000000  0.50000000  0.95668000  1
  O  O68  1  0.50000000  0.50000000  0.84289000  1
  O  O69  1  0.99950800  0.49998000  0.72830400  1
  O  O70  1  0.45158000  0.49972300  0.61612900  1
  O  O71  1  0.50000000  0.50000000  0.92952000  1
  O  O72  1  1.00000000  0.50000000  0.81573000  1
  O  O73  1  0.47445800  0.50814900  0.70901700  1
  O  O74  1  0.01760500  0.48932700  0.58259200  1
  O  O75  1  0.30966000  0.00000000  0.00000000  1
  O  O76  1  0.80966000  0.00000000  0.88621000  1
  O  O77  1  0.30966000  0.00000000  0.77241000  1
  O  O78  1  0.79146400  0.95471300  0.63783300  1
  O  O79  1  0.24056600  0.94728100  0.53371400  1
  O  O80  1  0.69034000  0.00000000  0.00000000  1
  O  O81  1  0.19034000  0.00000000  0.88621000  1
  O  O82  1  0.69034000  0.00000000  0.77241000  1
  O  O83  1  0.16760700  0.96976600  0.64146800  1
  O  O84  1  0.80760900  0.03166700  0.53358900  1
