# generated using pymatgen
data_MgTiMnVZnCrFeCoCuNiSb20ClO54
_symmetry_space_group_name_H-M   'P 1'
_cell_length_a   6.60534500
_cell_length_b   9.64282600
_cell_length_c   29.21498300
_cell_angle_alpha   90.32019200
_cell_angle_beta   89.99519400
_cell_angle_gamma   89.95861500
_symmetry_Int_Tables_number   1
_chemical_formula_structural   MgTiMnVZnCrFeCoCuNiSb20ClO54
_chemical_formula_sum
'Mg1 Ti1 Mn1 V1 Zn1 Cr1 Fe1 Co1 Cu1 Ni1 Sb20 Cl1 O54'
_cell_volume   1860.79520168
_cell_formula_units_Z   1
loop_
 _symmetry_equiv_pos_site_id
 _symmetry_equiv_pos_as_xyz
  1  'x, y, z'
loop_
 _atom_site_type_symbol
 _atom_site_label
 _atom_site_symmetry_multiplicity
 _atom_site_fract_x
 _atom_site_fract_y
 _atom_site_fract_z
 _atom_site_occupancy
  Mg  Mg0  1  0.50000000  0.83232000  0.22759000  1
  Ti  Ti1  1  0.00000000  0.00000000  0.00000000  1
  Mn  Mn2  1  1.00000000  0.16768000  0.11379000  1
  V  V3  1  0.50045500  0.50045100  0.46281100  1
  Zn  Zn4  1  0.00000000  0.83232000  0.11379000  1
  Cr  Cr5  1  0.00000000  0.66768000  0.22759000  1
  Fe  Fe6  1  0.99946100  0.64841800  0.45045100  1
  Co  Co7  1  0.00207900  0.34794000  0.44616700  1
  Cu  Cu8  1  0.00037500  0.16566700  0.33756800  1
  Ni  Ni9  1  0.50000000  0.83232000  1.00000000  1
  Sb  Sb10  1  0.50000000  1.00000000  0.11379000  1
  Sb  Sb11  1  1.00000000  1.00000000  0.22759000  1
  Sb  Sb12  1  0.50001800  0.99614100  0.34805100  1
  Sb  Sb13  1  0.00181500  0.00397000  0.42452200  1
  Sb  Sb14  1  0.50000000  0.50000000  1.00000000  1
  Sb  Sb15  1  0.00000000  0.50000000  0.11379000  1
  Sb  Sb16  1  0.50000000  0.50000000  0.22759000  1
  Sb  Sb17  1  0.00002700  0.48659500  0.34036100  1
  Sb  Sb18  1  0.00000000  0.66768000  0.00000000  1
  Sb  Sb19  1  0.50000000  0.66768000  0.11379000  1
  Sb  Sb20  1  0.49950100  0.66652500  0.34412200  1
  Sb  Sb21  1  0.50000000  0.16768000  1.00000000  1
  Sb  Sb22  1  0.50000000  0.16768000  0.22759000  1
  Sb  Sb23  1  0.50388000  0.19509700  0.46474000  1
  Sb  Sb24  1  0.99897300  0.82514300  0.33838000  1
  Sb  Sb25  1  0.49811900  0.81480500  0.46590600  1
  Sb  Sb26  1  0.00000000  0.33232000  0.00000000  1
  Sb  Sb27  1  0.50000000  0.33232000  0.11379000  1
  Sb  Sb28  1  1.00000000  0.33232000  0.22759000  1
  Sb  Sb29  1  0.50018600  0.33758300  0.34558300  1
  Cl  Cl30  1  0.50051800  0.49375100  0.53934200  1
  O  O31  1  0.00000000  0.82836000  0.04494000  1
  O  O32  1  0.50000000  0.82836000  0.15874000  1
  O  O33  1  0.99980400  0.84474300  0.27065200  1
  O  O34  1  0.50017900  0.81192200  0.39411200  1
  O  O35  1  0.50000000  0.82836000  0.06885000  1
  O  O36  1  0.00000000  0.82836000  0.18264000  1
  O  O37  1  0.49993200  0.82747800  0.30279300  1
  O  O38  1  0.99723400  0.80171700  0.40806600  1
  O  O39  1  0.30253000  0.32836000  0.00000000  1
  O  O40  1  0.80253000  0.32836000  0.11379000  1
  O  O41  1  0.30253000  0.32836000  0.22759000  1
  O  O42  1  0.79771200  0.33577900  0.33683500  1
  O  O43  1  0.29353100  0.36461100  0.45857900  1
  O  O44  1  0.69747000  0.32836000  1.00000000  1
  O  O45  1  0.19747000  0.32836000  0.11379000  1
  O  O46  1  0.69747000  0.32836000  0.22759000  1
  O  O47  1  0.20266100  0.33589700  0.33658500  1
  O  O48  1  0.70968500  0.36283400  0.45854000  1
  O  O49  1  0.30253000  0.67164000  0.00000000  1
  O  O50  1  0.80253000  0.67164000  0.11379000  1
  O  O51  1  0.30253000  0.67164000  0.22759000  1
  O  O52  1  0.80640400  0.66029200  0.33720900  1
  O  O53  1  0.29413100  0.64771900  0.46090400  1
  O  O54  1  0.69747000  0.67164000  1.00000000  1
  O  O55  1  0.19747000  0.67164000  0.11379000  1
  O  O56  1  0.69747000  0.67164000  0.22759000  1
  O  O57  1  0.19275500  0.66059000  0.33730900  1
  O  O58  1  0.70528200  0.64587600  0.46059000  1
  O  O59  1  1.00000000  0.17164000  0.04494000  1
  O  O60  1  0.50000000  0.17164000  0.15874000  1
  O  O61  1  0.99978400  0.15531300  0.27066400  1
  O  O62  1  0.50008000  0.19450300  0.39501100  1
  O  O63  1  0.50000000  0.17164000  0.06885000  1
  O  O64  1  1.00000000  0.17164000  0.18264000  1
  O  O65  1  0.50010300  0.18166100  0.29757500  1
  O  O66  1  0.00334200  0.19503600  0.40557400  1
  O  O67  1  0.00000000  0.50000000  0.04332000  1
  O  O68  1  0.50000000  0.50000000  0.15711000  1
  O  O69  1  0.99950800  0.50002000  0.27169600  1
  O  O70  1  0.50054300  0.50655000  0.38843100  1
  O  O71  1  0.50000000  0.50000000  0.07048000  1
  O  O72  1  0.00000000  0.50000000  0.18427000  1
  O  O73  1  0.49982500  0.50137100  0.29946800  1
  O  O74  1  0.00068100  0.50303500  0.40640200  1
  O  O75  1  0.30966000  0.00000000  0.00000000  1
  O  O76  1  0.80966000  1.00000000  0.11379000  1
  O  O77  1  0.30966000  0.00000000  0.22759000  1
  O  O78  1  0.81766300  0.98214700  0.35417000  1
  O  O79  1  0.25793800  0.99424400  0.45756100  1
  O  O80  1  0.69034000  1.00000000  1.00000000  1
  O  O81  1  0.19034000  0.00000000  0.11379000  1
  O  O82  1  0.69034000  1.00000000  0.22759000  1
  O  O83  1  0.18270100  0.98053300  0.35501500  1
  O  O84  1  0.74412900  0.00111900  0.45714500  1
