# generated using pymatgen
data_MgTiMnVZnCrFeCoCuNiSb20ClO54
_symmetry_space_group_name_H-M   'P 1'
_cell_length_a   6.85958800
_cell_length_b   9.64966900
_cell_length_c   29.71772100
_cell_angle_alpha   89.80762200
_cell_angle_beta   89.42039700
_cell_angle_gamma   89.73047800
_symmetry_Int_Tables_number   1
_chemical_formula_structural   MgTiMnVZnCrFeCoCuNiSb20ClO54
_chemical_formula_sum
'Mg1 Ti1 Mn1 V1 Zn1 Cr1 Fe1 Co1 Cu1 Ni1 Sb20 Cl1 O54'
_cell_volume   1966.96459759
_cell_formula_units_Z   1
loop_
 _symmetry_equiv_pos_site_id
 _symmetry_equiv_pos_as_xyz
  1  'x, y, z'
loop_
 _atom_site_type_symbol
 _atom_site_label
 _atom_site_symmetry_multiplicity
 _atom_site_fract_x
 _atom_site_fract_y
 _atom_site_fract_z
 _atom_site_occupancy
  Mg  Mg0  1  0.51015200  0.82513500  0.44375100  1
  Ti  Ti1  1  0.50000000  0.50000000  1.00000000  1
  Mn  Mn2  1  1.00000000  0.66768000  0.22759000  1
  V  V3  1  0.54260300  0.54113300  0.44881100  1
  Zn  Zn4  1  0.95915400  0.82251100  0.33668000  1
  Cr  Cr5  1  0.44886300  0.13760300  0.44648100  1
  Fe  Fe6  1  0.49882000  0.66981200  0.33753700  1
  Co  Co7  1  0.14585500  0.67601400  0.41153000  1
  Cu  Cu8  1  0.50000000  0.00000000  0.11379000  1
  Ni  Ni9  1  0.07366100  0.98099600  0.42682500  1
  Sb  Sb10  1  0.00000000  0.00000000  0.00000000  1
  Sb  Sb11  1  1.00000000  0.00000000  0.22759000  1
  Sb  Sb12  1  0.49087500  0.99636900  0.33852300  1
  Sb  Sb13  1  1.00000000  0.50000000  0.11379000  1
  Sb  Sb14  1  0.50000000  0.50000000  0.22759000  1
  Sb  Sb15  1  0.98956800  0.50059400  0.33834100  1
  Sb  Sb16  1  1.00000000  0.33232000  0.00000000  1
  Sb  Sb17  1  0.50000000  0.33232000  0.11379000  1
  Sb  Sb18  1  1.00000000  0.33232000  0.22759000  1
  Sb  Sb19  1  0.49055100  0.35628400  0.35039400  1
  Sb  Sb20  1  0.93916600  0.33626100  0.45002800  1
  Sb  Sb21  1  0.50000000  0.83232000  1.00000000  1
  Sb  Sb22  1  1.00000000  0.83232000  0.11379000  1
  Sb  Sb23  1  0.50000000  0.83232000  0.22759000  1
  Sb  Sb24  1  0.50000000  0.16768000  1.00000000  1
  Sb  Sb25  1  1.00000000  0.16768000  0.11379000  1
  Sb  Sb26  1  0.50000000  0.16768000  0.22759000  1
  Sb  Sb27  1  0.99096100  0.16058200  0.34138300  1
  Sb  Sb28  1  1.00000000  0.66768000  0.00000000  1
  Sb  Sb29  1  0.50000000  0.66768000  0.11379000  1
  Cl  Cl30  1  0.51638600  0.46816500  0.51956800  1
  O  O31  1  1.00000000  0.17164000  0.04494000  1
  O  O32  1  0.50000000  0.17164000  0.15874000  1
  O  O33  1  0.00019600  0.15525700  0.27065200  1
  O  O34  1  0.50844800  0.13613100  0.38894700  1
  O  O35  1  0.50000000  0.17164000  0.06885000  1
  O  O36  1  1.00000000  0.17164000  0.18264000  1
  O  O37  1  0.49174000  0.16021400  0.29521100  1
  O  O38  1  0.97595600  0.16757900  0.40888100  1
  O  O39  1  0.69747000  0.67164000  1.00000000  1
  O  O40  1  0.19747000  0.67164000  0.11379000  1
  O  O41  1  0.69747000  0.67164000  0.22759000  1
  O  O42  1  0.17634200  0.65826200  0.34347600  1
  O  O43  1  0.70833600  0.66301300  0.45145900  1
  O  O44  1  0.30253000  0.67164000  1.00000000  1
  O  O45  1  0.80253000  0.67164000  0.11379000  1
  O  O46  1  0.30253000  0.67164000  0.22759000  1
  O  O47  1  0.78489000  0.64530600  0.33873500  1
  O  O48  1  0.33513300  0.66467200  0.45485100  1
  O  O49  1  0.69747000  0.32836000  1.00000000  1
  O  O50  1  0.19747000  0.32836000  0.11379000  1
  O  O51  1  0.69747000  0.32836000  0.22759000  1
  O  O52  1  0.17384300  0.32698600  0.33631200  1
  O  O53  1  0.66751600  0.38015500  0.43004500  1
  O  O54  1  0.30253000  0.32836000  1.00000000  1
  O  O55  1  0.80253000  0.32836000  0.11379000  1
  O  O56  1  0.30253000  0.32836000  0.22759000  1
  O  O57  1  0.80947200  0.32992700  0.33607400  1
  O  O58  1  0.30676600  0.27204000  0.45515800  1
  O  O59  1  1.00000000  0.82836000  0.04494000  1
  O  O60  1  0.50000000  0.82836000  0.15874000  1
  O  O61  1  0.00021600  0.84468700  0.27066400  1
  O  O62  1  0.49852800  0.83604700  0.37885900  1
  O  O63  1  0.50000000  0.82836000  0.06885000  1
  O  O64  1  1.00000000  0.82836000  0.18264000  1
  O  O65  1  0.49250900  0.83670300  0.29447500  1
  O  O66  1  0.97955600  0.82063000  0.40691800  1
  O  O67  1  1.00000000  0.50000000  0.04332000  1
  O  O68  1  0.50000000  0.50000000  0.15711000  1
  O  O69  1  0.00049200  0.49998000  0.27169600  1
  O  O70  1  0.45464700  0.53785200  0.38798500  1
  O  O71  1  0.50000000  0.50000000  0.07048000  1
  O  O72  1  1.00000000  0.50000000  0.18427000  1
  O  O73  1  0.48418900  0.50183800  0.29760500  1
  O  O74  1  0.02552500  0.48808800  0.40624000  1
  O  O75  1  0.69034000  1.00000000  1.00000000  1
  O  O76  1  0.19034000  0.00000000  0.11379000  1
  O  O77  1  0.69034000  1.00000000  0.22759000  1
  O  O78  1  0.19276700  0.01025300  0.34212300  1
  O  O79  1  0.64743300  0.12033900  0.47478500  1
  O  O80  1  0.30966000  0.00000000  1.00000000  1
  O  O81  1  0.80966000  1.00000000  0.11379000  1
  O  O82  1  0.30966000  0.00000000  0.22759000  1
  O  O83  1  0.79217400  0.00864600  0.33694900  1
  O  O84  1  0.31902000  0.98593400  0.45434900  1
