# generated using pymatgen
data_MgTiMnVZnCrFeCoCuNiSb20ClO54
_symmetry_space_group_name_H-M   'P 1'
_cell_length_a   6.74224300
_cell_length_b   9.54943500
_cell_length_c   29.00655600
_cell_angle_alpha   90.30120500
_cell_angle_beta   89.96297500
_cell_angle_gamma   89.98307300
_symmetry_Int_Tables_number   1
_chemical_formula_structural   MgTiMnVZnCrFeCoCuNiSb20ClO54
_chemical_formula_sum
'Mg1 Ti1 Mn1 V1 Zn1 Cr1 Fe1 Co1 Cu1 Ni1 Sb20 Cl1 O54'
_cell_volume   1867.54955306
_cell_formula_units_Z   1
loop_
 _symmetry_equiv_pos_site_id
 _symmetry_equiv_pos_as_xyz
  1  'x, y, z'
loop_
 _atom_site_type_symbol
 _atom_site_label
 _atom_site_symmetry_multiplicity
 _atom_site_fract_x
 _atom_site_fract_y
 _atom_site_fract_z
 _atom_site_occupancy
  Mg  Mg0  1  0.00000000  0.33232000  0.22759000  1
  Ti  Ti1  1  0.50000000  0.83232000  0.00000000  1
  Mn  Mn2  1  1.00000000  0.83232000  0.11379000  1
  V  V3  1  0.51574600  0.48604000  0.45662700  1
  Zn  Zn4  1  0.00000000  0.00000000  0.00000000  1
  Cr  Cr5  1  0.00732200  0.00594000  0.44964800  1
  Fe  Fe6  1  0.50000000  0.50000000  0.22759000  1
  Co  Co7  1  0.00325500  0.49779300  0.33644400  1
  Cu  Cu8  1  0.36546500  0.16151500  0.45043400  1
  Ni  Ni9  1  0.50000000  0.66768000  0.11379000  1
  Sb  Sb10  1  0.50000000  1.00000000  0.11379000  1
  Sb  Sb11  1  0.00000000  0.00000000  0.22759000  1
  Sb  Sb12  1  0.50326100  0.00782000  0.34783300  1
  Sb  Sb13  1  0.50000000  0.50000000  1.00000000  1
  Sb  Sb14  1  0.00000000  0.50000000  0.11379000  1
  Sb  Sb15  1  1.00000000  0.66768000  0.00000000  1
  Sb  Sb16  1  1.00000000  0.66768000  0.22759000  1
  Sb  Sb17  1  0.50239300  0.66129000  0.34432400  1
  Sb  Sb18  1  0.99603100  0.65434000  0.46370200  1
  Sb  Sb19  1  0.50000000  0.16768000  0.00000000  1
  Sb  Sb20  1  0.00000000  0.16768000  0.11379000  1
  Sb  Sb21  1  0.50000000  0.16768000  0.22759000  1
  Sb  Sb22  1  0.00108000  0.17644700  0.34032000  1
  Sb  Sb23  1  0.50000000  0.83232000  0.22759000  1
  Sb  Sb24  1  0.00171400  0.81718600  0.34787500  1
  Sb  Sb25  1  0.49568800  0.81898800  0.46393300  1
  Sb  Sb26  1  0.00000000  0.33232000  0.00000000  1
  Sb  Sb27  1  0.50000000  0.33232000  0.11379000  1
  Sb  Sb28  1  0.50220600  0.33632500  0.34164300  1
  Sb  Sb29  1  0.00899200  0.33544900  0.46037100  1
  Cl  Cl30  1  0.50521700  0.52718900  0.53324700  1
  O  O31  1  1.00000000  0.82836000  0.04494000  1
  O  O32  1  0.50000000  0.82836000  0.15874000  1
  O  O33  1  0.99980400  0.84474300  0.27065200  1
  O  O34  1  0.50374900  0.83728600  0.39095400  1
  O  O35  1  0.50000000  0.82836000  0.06885000  1
  O  O36  1  1.00000000  0.82836000  0.18264000  1
  O  O37  1  0.50286900  0.84077100  0.30074000  1
  O  O38  1  0.97001200  0.82706800  0.42430800  1
  O  O39  1  0.30253000  0.32836000  0.00000000  1
  O  O40  1  0.80253000  0.32836000  0.11379000  1
  O  O41  1  0.30253000  0.32836000  0.22759000  1
  O  O42  1  0.80560600  0.33464800  0.34073200  1
  O  O43  1  0.31866000  0.35886100  0.45400600  1
  O  O44  1  0.69747000  0.32836000  0.00000000  1
  O  O45  1  0.19747000  0.32836000  0.11379000  1
  O  O46  1  0.69747000  0.32836000  0.22759000  1
  O  O47  1  0.19867200  0.33316600  0.34070200  1
  O  O48  1  0.69640300  0.36640100  0.45398700  1
  O  O49  1  0.30253000  0.67164000  0.00000000  1
  O  O50  1  0.80253000  0.67164000  0.11379000  1
  O  O51  1  0.30253000  0.67164000  0.22759000  1
  O  O52  1  0.79627700  0.65647600  0.34272900  1
  O  O53  1  0.30559500  0.66255700  0.45199100  1
  O  O54  1  0.69747000  0.67164000  0.00000000  1
  O  O55  1  0.19747000  0.67164000  0.11379000  1
  O  O56  1  0.69747000  0.67164000  0.22759000  1
  O  O57  1  0.20858800  0.65631800  0.34212600  1
  O  O58  1  0.67846700  0.64369300  0.44737200  1
  O  O59  1  0.00000000  0.17164000  0.04494000  1
  O  O60  1  0.50000000  0.17164000  0.15874000  1
  O  O61  1  0.99978400  0.15531300  0.27066400  1
  O  O62  1  0.50889700  0.17655200  0.38876100  1
  O  O63  1  0.50000000  0.17164000  0.06885000  1
  O  O64  1  0.00000000  0.17164000  0.18264000  1
  O  O65  1  0.50321600  0.16002200  0.29846200  1
  O  O66  1  0.00038600  0.17559600  0.41256200  1
  O  O67  1  0.00000000  0.50000000  0.04332000  1
  O  O68  1  0.50000000  0.50000000  0.15711000  1
  O  O69  1  0.99950800  0.50002000  0.27169600  1
  O  O70  1  0.49269400  0.49539500  0.38752400  1
  O  O71  1  0.50000000  0.50000000  0.07048000  1
  O  O72  1  0.00000000  0.50000000  0.18427000  1
  O  O73  1  0.50361300  0.50127000  0.29772600  1
  O  O74  1  0.00584900  0.49913900  0.41538900  1
  O  O75  1  0.30966000  0.00000000  0.00000000  1
  O  O76  1  0.80966000  1.00000000  0.11379000  1
  O  O77  1  0.30966000  0.00000000  0.22759000  1
  O  O78  1  0.80202600  0.01677600  0.34585700  1
  O  O79  1  0.26819600  0.98081200  0.46356600  1
  O  O80  1  0.69034000  1.00000000  1.00000000  1
  O  O81  1  0.19034000  0.00000000  0.11379000  1
  O  O82  1  0.69034000  1.00000000  0.22759000  1
  O  O83  1  0.20439400  0.01863400  0.34690800  1
  O  O84  1  0.84806800  0.02948400  0.48989100  1
