# generated using pymatgen
data_MgTiMnVZnCrFeCoCuNiSb20ClO54
_symmetry_space_group_name_H-M   'P 1'
_cell_length_a   6.67584600
_cell_length_b   9.46591400
_cell_length_c   29.11487400
_cell_angle_alpha   90.05839600
_cell_angle_beta   89.99275900
_cell_angle_gamma   89.99282100
_symmetry_Int_Tables_number   1
_chemical_formula_structural   MgTiMnVZnCrFeCoCuNiSb20ClO54
_chemical_formula_sum
'Mg1 Ti1 Mn1 V1 Zn1 Cr1 Fe1 Co1 Cu1 Ni1 Sb20 Cl1 O54'
_cell_volume   1839.85478538
_cell_formula_units_Z   1
loop_
 _symmetry_equiv_pos_site_id
 _symmetry_equiv_pos_as_xyz
  1  'x, y, z'
loop_
 _atom_site_type_symbol
 _atom_site_label
 _atom_site_symmetry_multiplicity
 _atom_site_fract_x
 _atom_site_fract_y
 _atom_site_fract_z
 _atom_site_occupancy
  Mg  Mg0  1  1.00000000  0.66768000  0.22759000  1
  Ti  Ti1  1  0.00000000  0.16768000  0.11379000  1
  Mn  Mn2  1  0.50000000  0.16768000  1.00000000  1
  V  V3  1  0.49870100  0.48939800  0.44528500  1
  Zn  Zn4  1  0.00000000  0.83232000  0.11379000  1
  Cr  Cr5  1  0.50000000  0.83232000  1.00000000  1
  Fe  Fe6  1  0.99590100  0.99623200  0.44846700  1
  Co  Co7  1  0.00000000  0.50000000  0.11379000  1
  Cu  Cu8  1  0.49954100  0.33137400  0.34038400  1
  Ni  Ni9  1  0.00000000  1.00000000  0.22759000  1
  Sb  Sb10  1  0.00000000  0.00000000  0.00000000  1
  Sb  Sb11  1  0.50000000  0.00000000  0.11379000  1
  Sb  Sb12  1  0.49967500  0.00789700  0.34535500  1
  Sb  Sb13  1  0.50000000  0.50000000  1.00000000  1
  Sb  Sb14  1  0.50000000  0.50000000  0.22759000  1
  Sb  Sb15  1  0.99936300  0.49201100  0.33995900  1
  Sb  Sb16  1  1.00000000  0.33232000  0.00000000  1
  Sb  Sb17  1  0.50000000  0.33232000  0.11379000  1
  Sb  Sb18  1  1.00000000  0.33232000  0.22759000  1
  Sb  Sb19  1  0.99901100  0.32592300  0.45837200  1
  Sb  Sb20  1  0.50000000  0.83232000  0.22759000  1
  Sb  Sb21  1  0.99998200  0.83400900  0.33622900  1
  Sb  Sb22  1  0.49878900  0.80709000  0.46729300  1
  Sb  Sb23  1  0.50000000  0.16768000  0.22759000  1
  Sb  Sb24  1  0.99947500  0.17451400  0.33965600  1
  Sb  Sb25  1  0.49639200  0.15043500  0.46122400  1
  Sb  Sb26  1  1.00000000  0.66768000  0.00000000  1
  Sb  Sb27  1  0.50000000  0.66768000  0.11379000  1
  Sb  Sb28  1  0.49973700  0.66262200  0.34332800  1
  Sb  Sb29  1  0.00232900  0.67543200  0.45434200  1
  Cl  Cl30  1  0.48578400  0.53919100  0.52540900  1
  O  O31  1  1.00000000  0.17164000  0.04494000  1
  O  O32  1  0.50000000  0.17164000  0.15874000  1
  O  O33  1  0.00019600  0.15525700  0.27065200  1
  O  O34  1  0.50022800  0.15702900  0.39231300  1
  O  O35  1  0.50000000  0.17164000  0.06885000  1
  O  O36  1  0.00000000  0.17164000  0.18264000  1
  O  O37  1  0.49845500  0.16258400  0.29802500  1
  O  O38  1  0.99317800  0.17419300  0.40942500  1
  O  O39  1  0.69747000  0.67164000  1.00000000  1
  O  O40  1  0.19747000  0.67164000  0.11379000  1
  O  O41  1  0.69747000  0.67164000  0.22759000  1
  O  O42  1  0.19294700  0.66117100  0.34067900  1
  O  O43  1  0.69218000  0.65487700  0.44310000  1
  O  O44  1  0.30253000  0.67164000  1.00000000  1
  O  O45  1  0.80253000  0.67164000  0.11379000  1
  O  O46  1  0.30253000  0.67164000  0.22759000  1
  O  O47  1  0.80621500  0.66213200  0.34015700  1
  O  O48  1  0.31064500  0.65258600  0.44029700  1
  O  O49  1  0.69747000  0.32836000  1.00000000  1
  O  O50  1  0.19747000  0.32836000  0.11379000  1
  O  O51  1  0.69747000  0.32836000  0.22759000  1
  O  O52  1  0.20042200  0.33360400  0.34020900  1
  O  O53  1  0.68872800  0.35934700  0.45174400  1
  O  O54  1  0.30253000  0.32836000  1.00000000  1
  O  O55  1  0.80253000  0.32836000  0.11379000  1
  O  O56  1  0.30253000  0.32836000  0.22759000  1
  O  O57  1  0.79926700  0.33344400  0.33931400  1
  O  O58  1  0.30917600  0.35778900  0.44887300  1
  O  O59  1  1.00000000  0.82836000  0.04494000  1
  O  O60  1  0.50000000  0.82836000  0.15874000  1
  O  O61  1  0.00021600  0.84468700  0.27066400  1
  O  O62  1  0.50003000  0.83748600  0.38776100  1
  O  O63  1  0.50000000  0.82836000  0.06885000  1
  O  O64  1  1.00000000  0.82836000  0.18264000  1
  O  O65  1  0.49875800  0.83747600  0.29948100  1
  O  O66  1  0.99889600  0.82883600  0.40574500  1
  O  O67  1  0.00000000  0.50000000  0.04332000  1
  O  O68  1  0.50000000  0.50000000  0.15711000  1
  O  O69  1  0.00049200  0.49998000  0.27169600  1
  O  O70  1  0.50901800  0.49253600  0.38356200  1
  O  O71  1  0.50000000  0.50000000  0.07048000  1
  O  O72  1  0.00000000  0.50000000  0.18427000  1
  O  O73  1  0.49719300  0.50666000  0.29558900  1
  O  O74  1  0.99718000  0.49678000  0.41146300  1
  O  O75  1  0.69034000  0.00000000  1.00000000  1
  O  O76  1  0.19034000  0.00000000  0.11379000  1
  O  O77  1  0.69034000  0.00000000  0.22759000  1
  O  O78  1  0.19284600  0.00532900  0.34405100  1
  O  O79  1  0.71816500  0.99192800  0.45987900  1
  O  O80  1  0.30966000  0.00000000  1.00000000  1
  O  O81  1  0.80966000  0.00000000  0.11379000  1
  O  O82  1  0.30966000  0.00000000  0.22759000  1
  O  O83  1  0.80642700  0.00490100  0.34342700  1
  O  O84  1  0.27279800  0.99532800  0.45906400  1
