# generated using pymatgen
data_MgTiMnVZnCrFeCoCuNiSb20ClO54
_symmetry_space_group_name_H-M   'P 1'
_cell_length_a   6.58217700
_cell_length_b   9.37586600
_cell_length_c   29.28691400
_cell_angle_alpha   89.74321500
_cell_angle_beta   89.66303300
_cell_angle_gamma   89.96850000
_symmetry_Int_Tables_number   1
_chemical_formula_structural   MgTiMnVZnCrFeCoCuNiSb20ClO54
_chemical_formula_sum
'Mg1 Ti1 Mn1 V1 Zn1 Cr1 Fe1 Co1 Cu1 Ni1 Sb20 Cl1 O54'
_cell_volume   1807.35151884
_cell_formula_units_Z   1
loop_
 _symmetry_equiv_pos_site_id
 _symmetry_equiv_pos_as_xyz
  1  'x, y, z'
loop_
 _atom_site_type_symbol
 _atom_site_label
 _atom_site_symmetry_multiplicity
 _atom_site_fract_x
 _atom_site_fract_y
 _atom_site_fract_z
 _atom_site_occupancy
  Mg  Mg0  1  0.00000000  0.50000000  0.11379000  1
  Ti  Ti1  1  0.50000000  0.83232000  0.22759000  1
  Mn  Mn2  1  0.49330000  0.99376900  0.33839700  1
  V  V3  1  0.50327900  0.49187900  0.44693800  1
  Zn  Zn4  1  0.50000000  0.16768000  1.00000000  1
  Cr  Cr5  1  0.50000000  0.16768000  0.22759000  1
  Fe  Fe6  1  0.50000000  0.50000000  1.00000000  1
  Co  Co7  1  0.00000000  0.83232000  0.11379000  1
  Cu  Cu8  1  0.50000000  0.83232000  1.00000000  1
  Ni  Ni9  1  0.00000000  0.66768000  0.22759000  1
  Sb  Sb10  1  0.00000000  0.00000000  0.00000000  1
  Sb  Sb11  1  0.50000000  0.00000000  0.11379000  1
  Sb  Sb12  1  0.00000000  0.00000000  0.22759000  1
  Sb  Sb13  1  0.99308800  0.00398900  0.47492800  1
  Sb  Sb14  1  0.50000000  0.50000000  0.22759000  1
  Sb  Sb15  1  0.00117100  0.49956800  0.33864000  1
  Sb  Sb16  1  1.00000000  0.66768000  0.00000000  1
  Sb  Sb17  1  0.50000000  0.66768000  0.11379000  1
  Sb  Sb18  1  0.49911900  0.67649900  0.34826100  1
  Sb  Sb19  1  0.99792700  0.66757900  0.45037000  1
  Sb  Sb20  1  0.00000000  0.16768000  0.11379000  1
  Sb  Sb21  1  0.99288500  0.15829100  0.35861200  1
  Sb  Sb22  1  0.47533200  0.16239300  0.45213800  1
  Sb  Sb23  1  0.99315700  0.83927300  0.33751300  1
  Sb  Sb24  1  0.52416500  0.81781800  0.45850400  1
  Sb  Sb25  1  0.00000000  0.33232000  0.00000000  1
  Sb  Sb26  1  0.50000000  0.33232000  0.11379000  1
  Sb  Sb27  1  0.00000000  0.33232000  0.22759000  1
  Sb  Sb28  1  0.49331100  0.32146500  0.33603400  1
  Sb  Sb29  1  0.97208300  0.35228100  0.47692600  1
  Cl  Cl30  1  0.62437100  0.53707700  0.52146600  1
  O  O31  1  0.00000000  0.82836000  0.04494000  1
  O  O32  1  0.50000000  0.82836000  0.15874000  1
  O  O33  1  0.99980400  0.84474300  0.27065200  1
  O  O34  1  0.49625100  0.86098800  0.38561900  1
  O  O35  1  0.50000000  0.82836000  0.06885000  1
  O  O36  1  0.00000000  0.82836000  0.18264000  1
  O  O37  1  0.49359900  0.84087200  0.29815800  1
  O  O38  1  0.99059800  0.83550900  0.40563000  1
  O  O39  1  0.30253000  0.32836000  1.00000000  1
  O  O40  1  0.80253000  0.32836000  0.11379000  1
  O  O41  1  0.30253000  0.32836000  0.22759000  1
  O  O42  1  0.79524800  0.33942100  0.33814300  1
  O  O43  1  0.30144500  0.39223700  0.46691400  1
  O  O44  1  0.69747000  0.32836000  1.00000000  1
  O  O45  1  0.19747000  0.32836000  0.11379000  1
  O  O46  1  0.69747000  0.32836000  0.22759000  1
  O  O47  1  0.18814400  0.32837600  0.33378600  1
  O  O48  1  0.69253500  0.34070800  0.44309600  1
  O  O49  1  0.30253000  0.67164000  1.00000000  1
  O  O50  1  0.80253000  0.67164000  0.11379000  1
  O  O51  1  0.30253000  0.67164000  0.22759000  1
  O  O52  1  0.80810800  0.66670900  0.33362200  1
  O  O53  1  0.31802300  0.66106500  0.44203300  1
  O  O54  1  0.69747000  0.67164000  1.00000000  1
  O  O55  1  0.19747000  0.67164000  0.11379000  1
  O  O56  1  0.69747000  0.67164000  0.22759000  1
  O  O57  1  0.18654900  0.67195200  0.33578300  1
  O  O58  1  0.68703800  0.64723900  0.42725200  1
  O  O59  1  0.00000000  0.17164000  0.04494000  1
  O  O60  1  0.50000000  0.17164000  0.15874000  1
  O  O61  1  0.99978400  0.15531300  0.27066400  1
  O  O62  1  0.47497900  0.15915700  0.38118000  1
  O  O63  1  0.50000000  0.17164000  0.06885000  1
  O  O64  1  0.00000000  0.17164000  0.18264000  1
  O  O65  1  0.49971500  0.15671700  0.29446600  1
  O  O66  1  0.05946300  0.18363300  0.43552500  1
  O  O67  1  0.00000000  0.50000000  0.04332000  1
  O  O68  1  0.50000000  0.50000000  0.15711000  1
  O  O69  1  0.99950800  0.50002000  0.27169600  1
  O  O70  1  0.46019300  0.46967000  0.38378000  1
  O  O71  1  0.50000000  0.50000000  0.07048000  1
  O  O72  1  0.00000000  0.50000000  0.18427000  1
  O  O73  1  0.49526200  0.49605200  0.29598100  1
  O  O74  1  0.01529800  0.49683800  0.40586400  1
  O  O75  1  0.30966000  1.00000000  1.00000000  1
  O  O76  1  0.80966000  0.00000000  0.11379000  1
  O  O77  1  0.30966000  0.00000000  0.22759000  1
  O  O78  1  0.78304400  0.99338100  0.33764800  1
  O  O79  1  0.29284800  0.97220100  0.45390600  1
  O  O80  1  0.69034000  1.00000000  1.00000000  1
  O  O81  1  0.19034000  0.00000000  0.11379000  1
  O  O82  1  0.69034000  0.00000000  0.22759000  1
  O  O83  1  0.20100300  0.99503500  0.33850200  1
  O  O84  1  0.71030300  0.02189500  0.44444300  1
