# generated using pymatgen
data_MgTiMnVZnCrFeCoCuNiSb20ClO54
_symmetry_space_group_name_H-M   'P 1'
_cell_length_a   6.74633800
_cell_length_b   9.67752600
_cell_length_c   29.49081600
_cell_angle_alpha   89.79654900
_cell_angle_beta   90.55960500
_cell_angle_gamma   89.84555500
_symmetry_Int_Tables_number   1
_chemical_formula_structural   MgTiMnVZnCrFeCoCuNiSb20ClO54
_chemical_formula_sum
'Mg1 Ti1 Mn1 V1 Zn1 Cr1 Fe1 Co1 Cu1 Ni1 Sb20 Cl1 O54'
_cell_volume   1925.28115907
_cell_formula_units_Z   1
loop_
 _symmetry_equiv_pos_site_id
 _symmetry_equiv_pos_as_xyz
  1  'x, y, z'
loop_
 _atom_site_type_symbol
 _atom_site_label
 _atom_site_symmetry_multiplicity
 _atom_site_fract_x
 _atom_site_fract_y
 _atom_site_fract_z
 _atom_site_occupancy
  Mg  Mg0  1  0.98497300  0.99526700  0.44578000  1
  Ti  Ti1  1  0.50566700  0.97432800  0.34221400  1
  Mn  Mn2  1  0.50445100  0.66319600  0.34156100  1
  V  V3  1  0.56234200  0.53332500  0.45088300  1
  Zn  Zn4  1  1.00000000  0.50000000  0.11379000  1
  Cr  Cr5  1  0.98095600  0.34606600  0.44391500  1
  Fe  Fe6  1  0.50000000  0.16768000  0.00000000  1
  Co  Co7  1  1.00000000  0.66768000  0.22759000  1
  Cu  Cu8  1  0.50917500  0.82949200  0.44784900  1
  Ni  Ni9  1  0.00000000  0.00000000  0.00000000  1
  Sb  Sb10  1  0.50000000  0.00000000  0.11379000  1
  Sb  Sb11  1  1.00000000  0.00000000  0.22759000  1
  Sb  Sb12  1  0.50000000  0.50000000  0.00000000  1
  Sb  Sb13  1  0.50000000  0.50000000  0.22759000  1
  Sb  Sb14  1  0.00660200  0.50608600  0.33847600  1
  Sb  Sb15  1  0.00000000  0.66768000  0.00000000  1
  Sb  Sb16  1  0.50000000  0.66768000  0.11379000  1
  Sb  Sb17  1  0.06259300  0.66892800  0.45270400  1
  Sb  Sb18  1  1.00000000  0.16768000  0.11379000  1
  Sb  Sb19  1  0.50000000  0.16768000  0.22759000  1
  Sb  Sb20  1  0.01421100  0.15722200  0.34693000  1
  Sb  Sb21  1  0.48705700  0.13363800  0.45630400  1
  Sb  Sb22  1  0.50000000  0.83232000  0.00000000  1
  Sb  Sb23  1  1.00000000  0.83232000  0.11379000  1
  Sb  Sb24  1  0.50000000  0.83232000  0.22759000  1
  Sb  Sb25  1  0.00454000  0.82728600  0.33912700  1
  Sb  Sb26  1  0.00000000  0.33232000  0.00000000  1
  Sb  Sb27  1  0.50000000  0.33232000  0.11379000  1
  Sb  Sb28  1  1.00000000  0.33232000  0.22759000  1
  Sb  Sb29  1  0.50809300  0.32973400  0.34350400  1
  Cl  Cl30  1  0.45904400  0.52317000  0.52209900  1
  O  O31  1  1.00000000  0.82836000  0.04494000  1
  O  O32  1  0.50000000  0.82836000  0.15874000  1
  O  O33  1  0.99980400  0.84474300  0.27065200  1
  O  O34  1  0.51979400  0.83330200  0.37926600  1
  O  O35  1  0.50000000  0.82836000  0.06885000  1
  O  O36  1  1.00000000  0.82836000  0.18264000  1
  O  O37  1  0.50705600  0.84098700  0.29425800  1
  O  O38  1  0.00965800  0.82349300  0.40778400  1
  O  O39  1  0.30253000  0.32836000  0.00000000  1
  O  O40  1  0.80253000  0.32836000  0.11379000  1
  O  O41  1  0.30253000  0.32836000  0.22759000  1
  O  O42  1  0.81416500  0.34289800  0.34240400  1
  O  O43  1  0.15978100  0.34570900  0.47976400  1
  O  O44  1  0.69747000  0.32836000  0.00000000  1
  O  O45  1  0.19747000  0.32836000  0.11379000  1
  O  O46  1  0.69747000  0.32836000  0.22759000  1
  O  O47  1  0.20511700  0.34940900  0.34288000  1
  O  O48  1  0.74080700  0.39887100  0.46134500  1
  O  O49  1  0.30253000  0.67164000  0.00000000  1
  O  O50  1  0.80253000  0.67164000  0.11379000  1
  O  O51  1  0.30253000  0.67164000  0.22759000  1
  O  O52  1  0.81063000  0.66575900  0.33873300  1
  O  O53  1  0.34532100  0.66032400  0.43718400  1
  O  O54  1  0.69747000  0.67164000  0.00000000  1
  O  O55  1  0.19747000  0.67164000  0.11379000  1
  O  O56  1  0.69747000  0.67164000  0.22759000  1
  O  O57  1  0.19898700  0.66615700  0.33858700  1
  O  O58  1  0.71670900  0.66965900  0.44877000  1
  O  O59  1  0.00000000  0.17164000  0.04494000  1
  O  O60  1  0.50000000  0.17164000  0.15874000  1
  O  O61  1  0.99978400  0.15531300  0.27066400  1
  O  O62  1  0.49402600  0.15198400  0.38313200  1
  O  O63  1  0.50000000  0.17164000  0.06885000  1
  O  O64  1  1.00000000  0.17164000  0.18264000  1
  O  O65  1  0.50466900  0.17060700  0.29745900  1
  O  O66  1  0.95842500  0.18046000  0.41818500  1
  O  O67  1  1.00000000  0.50000000  0.04332000  1
  O  O68  1  0.50000000  0.50000000  0.15711000  1
  O  O69  1  0.99950800  0.50002000  0.27169600  1
  O  O70  1  0.51200900  0.47687700  0.39108300  1
  O  O71  1  0.50000000  0.50000000  0.07048000  1
  O  O72  1  1.00000000  0.50000000  0.18427000  1
  O  O73  1  0.50604800  0.49204900  0.29997300  1
  O  O74  1  0.01274100  0.50698000  0.40780000  1
  O  O75  1  0.30966000  0.00000000  0.00000000  1
  O  O76  1  0.80966000  0.00000000  0.11379000  1
  O  O77  1  0.30966000  0.00000000  0.22759000  1
  O  O78  1  0.80960200  0.98588300  0.34181500  1
  O  O79  1  0.28245600  0.98928900  0.45790000  1
  O  O80  1  0.69034000  0.00000000  0.00000000  1
  O  O81  1  0.19034000  0.00000000  0.11379000  1
  O  O82  1  0.69034000  0.00000000  0.22759000  1
  O  O83  1  0.20995400  0.97584800  0.34029200  1
  O  O84  1  0.69145200  0.98652400  0.45994900  1
