# generated using pymatgen
data_MgTiMnVZnCrFeCoCuNiSb20ClO54
_symmetry_space_group_name_H-M   'P 1'
_cell_length_a   6.67315900
_cell_length_b   9.59917900
_cell_length_c   28.91006000
_cell_angle_alpha   90.04398400
_cell_angle_beta   89.98222900
_cell_angle_gamma   89.99695500
_symmetry_Int_Tables_number   1
_chemical_formula_structural   MgTiMnVZnCrFeCoCuNiSb20ClO54
_chemical_formula_sum
'Mg1 Ti1 Mn1 V1 Zn1 Cr1 Fe1 Co1 Cu1 Ni1 Sb20 Cl1 O54'
_cell_volume   1851.88667409
_cell_formula_units_Z   1
loop_
 _symmetry_equiv_pos_site_id
 _symmetry_equiv_pos_as_xyz
  1  'x, y, z'
loop_
 _atom_site_type_symbol
 _atom_site_label
 _atom_site_symmetry_multiplicity
 _atom_site_fract_x
 _atom_site_fract_y
 _atom_site_fract_z
 _atom_site_occupancy
  Mg  Mg0  1  0.99874400  0.66151800  0.44716400  1
  Ti  Ti1  1  0.99858900  0.19253000  0.33782500  1
  Mn  Mn2  1  0.49987600  0.68215600  0.33884400  1
  V  V3  1  0.49963600  0.52230400  0.44835500  1
  Zn  Zn4  1  0.99945800  0.50728300  0.34117300  1
  Cr  Cr5  1  0.00000000  0.83232000  0.11379000  1
  Fe  Fe6  1  0.50000000  0.50000000  0.00000000  1
  Co  Co7  1  0.50000000  0.33232000  0.11379000  1
  Cu  Cu8  1  0.50000000  0.83232000  0.22759000  1
  Ni  Ni9  1  0.50000000  1.00000000  0.11379000  1
  Sb  Sb10  1  0.00000000  0.00000000  0.00000000  1
  Sb  Sb11  1  1.00000000  1.00000000  0.22759000  1
  Sb  Sb12  1  0.49987700  0.99434700  0.34683000  1
  Sb  Sb13  1  0.99949000  0.01107000  0.43628200  1
  Sb  Sb14  1  0.00000000  0.50000000  0.11379000  1
  Sb  Sb15  1  0.50000000  0.50000000  0.22759000  1
  Sb  Sb16  1  1.00000000  0.33232000  0.00000000  1
  Sb  Sb17  1  1.00000000  0.33232000  0.22759000  1
  Sb  Sb18  1  0.49886300  0.34307300  0.34840200  1
  Sb  Sb19  1  0.00116900  0.35491800  0.45481300  1
  Sb  Sb20  1  0.50000000  0.83232000  0.00000000  1
  Sb  Sb21  1  0.99983400  0.82829900  0.34065200  1
  Sb  Sb22  1  0.49837700  0.82645400  0.46477800  1
  Sb  Sb23  1  0.50000000  0.16768000  0.00000000  1
  Sb  Sb24  1  1.00000000  0.16768000  0.11379000  1
  Sb  Sb25  1  0.50000000  0.16768000  0.22759000  1
  Sb  Sb26  1  0.49998300  0.20409400  0.46443700  1
  Sb  Sb27  1  1.00000000  0.66768000  0.00000000  1
  Sb  Sb28  1  0.50000000  0.66768000  0.11379000  1
  Sb  Sb29  1  1.00000000  0.66768000  0.22759000  1
  Cl  Cl30  1  0.49138900  0.43704300  0.52832600  1
  O  O31  1  1.00000000  0.17164000  0.04494000  1
  O  O32  1  0.50000000  0.17164000  0.15874000  1
  O  O33  1  0.00019600  0.15525700  0.27065200  1
  O  O34  1  0.50011800  0.14321900  0.39382700  1
  O  O35  1  0.50000000  0.17164000  0.06885000  1
  O  O36  1  1.00000000  0.17164000  0.18264000  1
  O  O37  1  0.49947200  0.15928300  0.30039400  1
  O  O38  1  0.99773800  0.19462400  0.40743700  1
  O  O39  1  0.69747000  0.67164000  0.00000000  1
  O  O40  1  0.19747000  0.67164000  0.11379000  1
  O  O41  1  0.69747000  0.67164000  0.22759000  1
  O  O42  1  0.20357300  0.68144100  0.33952500  1
  O  O43  1  0.69859500  0.65478700  0.46320900  1
  O  O44  1  0.30253000  0.67164000  0.00000000  1
  O  O45  1  0.80253000  0.67164000  0.11379000  1
  O  O46  1  0.30253000  0.67164000  0.22759000  1
  O  O47  1  0.79609000  0.68149300  0.33906500  1
  O  O48  1  0.29875000  0.65575600  0.46282000  1
  O  O49  1  0.69747000  0.32836000  0.00000000  1
  O  O50  1  0.19747000  0.32836000  0.11379000  1
  O  O51  1  0.69747000  0.32836000  0.22759000  1
  O  O52  1  0.18924500  0.32111300  0.33386600  1
  O  O53  1  0.68562500  0.35888800  0.44030600  1
  O  O54  1  0.30253000  0.32836000  0.00000000  1
  O  O55  1  0.80253000  0.32836000  0.11379000  1
  O  O56  1  0.30253000  0.32836000  0.22759000  1
  O  O57  1  0.80931800  0.32154500  0.33338000  1
  O  O58  1  0.31483000  0.35803600  0.43923500  1
  O  O59  1  0.00000000  0.82836000  0.04494000  1
  O  O60  1  0.50000000  0.82836000  0.15874000  1
  O  O61  1  0.00021600  0.84468700  0.27066400  1
  O  O62  1  0.49982000  0.84271600  0.39508600  1
  O  O63  1  0.50000000  0.82836000  0.06885000  1
  O  O64  1  0.00000000  0.82836000  0.18264000  1
  O  O65  1  0.49955100  0.84202000  0.30116600  1
  O  O66  1  0.99558100  0.82611100  0.41052100  1
  O  O67  1  1.00000000  0.50000000  0.04332000  1
  O  O68  1  0.50000000  0.50000000  0.15711000  1
  O  O69  1  0.00049200  0.49998000  0.27169600  1
  O  O70  1  0.49997800  0.55500100  0.38926900  1
  O  O71  1  0.50000000  0.50000000  0.07048000  1
  O  O72  1  1.00000000  0.50000000  0.18427000  1
  O  O73  1  0.49955600  0.50015500  0.29602800  1
  O  O74  1  0.99940300  0.50026200  0.40906700  1
  O  O75  1  0.69034000  1.00000000  0.00000000  1
  O  O76  1  0.19034000  1.00000000  0.11379000  1
  O  O77  1  0.69034000  1.00000000  0.22759000  1
  O  O78  1  0.18602100  0.99991500  0.34951700  1
  O  O79  1  0.75463500  0.00898800  0.46937900  1
  O  O80  1  0.30966000  1.00000000  0.00000000  1
  O  O81  1  0.80966000  1.00000000  0.11379000  1
  O  O82  1  0.30966000  1.00000000  0.22759000  1
  O  O83  1  0.81380200  0.00022300  0.34914000  1
  O  O84  1  0.24588900  0.00740400  0.46889300  1
