# generated using pymatgen
data_MgTiMnVZnCrFeCoCuNiSb20ClO54
_symmetry_space_group_name_H-M   'P 1'
_cell_length_a   6.79972700
_cell_length_b   9.58538000
_cell_length_c   29.73206000
_cell_angle_alpha   90.06926300
_cell_angle_beta   89.97822200
_cell_angle_gamma   89.97624900
_symmetry_Int_Tables_number   1
_chemical_formula_structural   MgTiMnVZnCrFeCoCuNiSb20ClO54
_chemical_formula_sum
'Mg1 Ti1 Mn1 V1 Zn1 Cr1 Fe1 Co1 Cu1 Ni1 Sb20 Cl1 O54'
_cell_volume   1937.87350839
_cell_formula_units_Z   1
loop_
 _symmetry_equiv_pos_site_id
 _symmetry_equiv_pos_as_xyz
  1  'x, y, z'
loop_
 _atom_site_type_symbol
 _atom_site_label
 _atom_site_symmetry_multiplicity
 _atom_site_fract_x
 _atom_site_fract_y
 _atom_site_fract_z
 _atom_site_occupancy
  Mg  Mg0  1  0.54279400  0.18505100  0.55966700  1
  Ti  Ti1  1  1.00000000  0.16768000  0.88621000  1
  Mn  Mn2  1  0.49673200  0.99721100  0.66137100  1
  V  V3  1  0.50970300  0.49178800  0.55130500  1
  Zn  Zn4  1  1.00000000  0.00000000  0.77241000  1
  Cr  Cr5  1  0.94077000  0.00863100  0.56661700  1
  Fe  Fe6  1  0.00069100  0.48104400  0.66434300  1
  Co  Co7  1  0.52427600  0.76847200  0.56244700  1
  Cu  Cu8  1  1.00000000  0.66768000  0.77241000  1
  Ni  Ni9  1  0.00128500  0.16612400  0.66473700  1
  Sb  Sb10  1  0.00000000  0.00000000  0.00000000  1
  Sb  Sb11  1  0.50000000  0.00000000  0.88621000  1
  Sb  Sb12  1  0.50000000  0.50000000  1.00000000  1
  Sb  Sb13  1  0.00000000  0.50000000  0.88621000  1
  Sb  Sb14  1  0.50000000  0.50000000  0.77241000  1
  Sb  Sb15  1  0.00000000  0.66768000  1.00000000  1
  Sb  Sb16  1  0.50000000  0.66768000  0.88621000  1
  Sb  Sb17  1  0.50113900  0.67325300  0.66046600  1
  Sb  Sb18  1  0.01612300  0.66550400  0.55084100  1
  Sb  Sb19  1  0.50000000  0.16768000  1.00000000  1
  Sb  Sb20  1  0.50000000  0.16768000  0.77241000  1
  Sb  Sb21  1  0.50000000  0.83232000  1.00000000  1
  Sb  Sb22  1  0.00000000  0.83232000  0.88621000  1
  Sb  Sb23  1  0.50000000  0.83232000  0.77241000  1
  Sb  Sb24  1  0.00131200  0.84134000  0.66560500  1
  Sb  Sb25  1  0.00000000  0.33232000  1.00000000  1
  Sb  Sb26  1  0.50000000  0.33232000  0.88621000  1
  Sb  Sb27  1  1.00000000  0.33232000  0.77241000  1
  Sb  Sb28  1  0.50216600  0.32482200  0.66011900  1
  Sb  Sb29  1  0.01269400  0.33645500  0.55224000  1
  Cl  Cl30  1  0.50301400  0.49948600  0.47612500  1
  O  O31  1  0.00000000  0.82836000  0.95506000  1
  O  O32  1  0.50000000  0.82836000  0.84126000  1
  O  O33  1  0.00019600  0.84474300  0.72934800  1
  O  O34  1  0.49714900  0.84668700  0.61949000  1
  O  O35  1  0.50000000  0.82836000  0.93115000  1
  O  O36  1  0.00000000  0.82836000  0.81736000  1
  O  O37  1  0.50032000  0.84111200  0.70404400  1
  O  O38  1  0.99497900  0.83734600  0.59416400  1
  O  O39  1  0.69747000  0.32836000  1.00000000  1
  O  O40  1  0.19747000  0.32836000  0.88621000  1
  O  O41  1  0.69747000  0.32836000  0.77241000  1
  O  O42  1  0.20548500  0.33384700  0.66234100  1
  O  O43  1  0.71050200  0.35220900  0.55615600  1
  O  O44  1  0.30253000  0.32836000  1.00000000  1
  O  O45  1  0.80253000  0.32836000  0.88621000  1
  O  O46  1  0.30253000  0.32836000  0.77241000  1
  O  O47  1  0.79843500  0.33305600  0.66203800  1
  O  O48  1  0.34459700  0.34474600  0.55665300  1
  O  O49  1  0.69747000  0.67164000  1.00000000  1
  O  O50  1  0.19747000  0.67164000  0.88621000  1
  O  O51  1  0.69747000  0.67164000  0.77241000  1
  O  O52  1  0.19750900  0.67169000  0.65973000  1
  O  O53  1  0.71274500  0.62895000  0.55437400  1
  O  O54  1  0.30253000  0.67164000  1.00000000  1
  O  O55  1  0.80253000  0.67164000  0.88621000  1
  O  O56  1  0.30253000  0.67164000  0.77241000  1
  O  O57  1  0.80631200  0.67108400  0.65976000  1
  O  O58  1  0.32213700  0.63693200  0.55724700  1
  O  O59  1  0.00000000  0.17164000  0.95506000  1
  O  O60  1  0.50000000  0.17164000  0.84126000  1
  O  O61  1  0.00021600  0.15531300  0.72933600  1
  O  O62  1  0.49504000  0.14958200  0.62216700  1
  O  O63  1  0.50000000  0.17164000  0.93115000  1
  O  O64  1  1.00000000  0.17164000  0.81736000  1
  O  O65  1  0.50196100  0.16038400  0.70507100  1
  O  O66  1  0.99013300  0.17012900  0.59626700  1
  O  O67  1  0.00000000  0.50000000  0.95668000  1
  O  O68  1  0.50000000  0.50000000  0.84289000  1
  O  O69  1  0.00049200  0.50002000  0.72830400  1
  O  O70  1  0.50492900  0.49966900  0.61991800  1
  O  O71  1  0.50000000  0.50000000  0.92952000  1
  O  O72  1  0.00000000  0.50000000  0.81573000  1
  O  O73  1  0.50475100  0.50039000  0.70456300  1
  O  O74  1  0.01751900  0.50075800  0.59516900  1
  O  O75  1  0.69034000  0.00000000  0.00000000  1
  O  O76  1  0.19034000  0.00000000  0.88621000  1
  O  O77  1  0.69034000  0.00000000  0.77241000  1
  O  O78  1  0.20466500  0.99895800  0.66008500  1
  O  O79  1  0.70945800  0.01540100  0.54612700  1
  O  O80  1  0.30966000  1.00000000  1.00000000  1
  O  O81  1  0.80966000  0.00000000  0.88621000  1
  O  O82  1  0.30966000  0.00000000  0.77241000  1
  O  O83  1  0.79997300  0.99753700  0.65718300  1
  O  O84  1  0.10757400  0.01009900  0.52746900  1
