# generated using pymatgen
data_MgTiMnVZnCrFeCoCuNiSb20ClO54
_symmetry_space_group_name_H-M   'P 1'
_cell_length_a   6.65604000
_cell_length_b   9.53657800
_cell_length_c   29.11091500
_cell_angle_alpha   89.82729900
_cell_angle_beta   89.94417000
_cell_angle_gamma   89.95969200
_symmetry_Int_Tables_number   1
_chemical_formula_structural   MgTiMnVZnCrFeCoCuNiSb20ClO54
_chemical_formula_sum
'Mg1 Ti1 Mn1 V1 Zn1 Cr1 Fe1 Co1 Cu1 Ni1 Sb20 Cl1 O54'
_cell_volume   1847.83019272
_cell_formula_units_Z   1
loop_
 _symmetry_equiv_pos_site_id
 _symmetry_equiv_pos_as_xyz
  1  'x, y, z'
loop_
 _atom_site_type_symbol
 _atom_site_label
 _atom_site_symmetry_multiplicity
 _atom_site_fract_x
 _atom_site_fract_y
 _atom_site_fract_z
 _atom_site_occupancy
  Mg  Mg0  1  1.00000000  0.16768000  0.88621000  1
  Ti  Ti1  1  1.00000000  0.66768000  0.77241000  1
  Mn  Mn2  1  0.99452700  0.00164700  0.58211700  1
  V  V3  1  0.49856600  0.49798900  0.55052900  1
  Zn  Zn4  1  0.00157200  0.83063400  0.66159900  1
  Cr  Cr5  1  0.00105800  0.17416100  0.66003100  1
  Fe  Fe6  1  0.50071900  0.33343100  0.65938100  1
  Co  Co7  1  1.00000000  0.66768000  1.00000000  1
  Cu  Cu8  1  0.50000000  0.83232000  1.00000000  1
  Ni  Ni9  1  0.50000000  0.66768000  0.88621000  1
  Sb  Sb10  1  0.00000000  0.00000000  0.00000000  1
  Sb  Sb11  1  0.50000000  1.00000000  0.88621000  1
  Sb  Sb12  1  1.00000000  0.00000000  0.77241000  1
  Sb  Sb13  1  0.50034500  0.01037700  0.65402600  1
  Sb  Sb14  1  0.50000000  0.50000000  1.00000000  1
  Sb  Sb15  1  1.00000000  0.50000000  0.88621000  1
  Sb  Sb16  1  0.50000000  0.50000000  0.77241000  1
  Sb  Sb17  1  0.99989700  0.49201700  0.65736100  1
  Sb  Sb18  1  0.50071100  0.65855900  0.65619800  1
  Sb  Sb19  1  0.00050900  0.67227800  0.54212100  1
  Sb  Sb20  1  0.50000000  0.16768000  1.00000000  1
  Sb  Sb21  1  0.50000000  0.16768000  0.77241000  1
  Sb  Sb22  1  0.49883700  0.16751800  0.54267900  1
  Sb  Sb23  1  1.00000000  0.83232000  0.88621000  1
  Sb  Sb24  1  0.50000000  0.83232000  0.77241000  1
  Sb  Sb25  1  0.49763800  0.82601000  0.54104600  1
  Sb  Sb26  1  0.00000000  0.33232000  1.00000000  1
  Sb  Sb27  1  0.50000000  0.33232000  0.88621000  1
  Sb  Sb28  1  1.00000000  0.33232000  0.77241000  1
  Sb  Sb29  1  0.99991400  0.32409100  0.54112200  1
  Cl  Cl30  1  0.48644600  0.52512200  0.47179300  1
  O  O31  1  1.00000000  0.82836000  0.95506000  1
  O  O32  1  0.50000000  0.82836000  0.84126000  1
  O  O33  1  0.00019600  0.84474300  0.72934800  1
  O  O34  1  0.50145300  0.83763900  0.61208300  1
  O  O35  1  0.50000000  0.82836000  0.93115000  1
  O  O36  1  1.00000000  0.82836000  0.81736000  1
  O  O37  1  0.50082400  0.83688200  0.70126200  1
  O  O38  1  0.99323100  0.81139000  0.59126800  1
  O  O39  1  0.69747000  0.32836000  1.00000000  1
  O  O40  1  0.19747000  0.32836000  0.88621000  1
  O  O41  1  0.69747000  0.32836000  0.77241000  1
  O  O42  1  0.19358600  0.33141400  0.66217500  1
  O  O43  1  0.68375800  0.34801400  0.54747600  1
  O  O44  1  0.30253000  0.32836000  1.00000000  1
  O  O45  1  0.80253000  0.32836000  0.88621000  1
  O  O46  1  0.30253000  0.32836000  0.77241000  1
  O  O47  1  0.80800100  0.33091600  0.66273100  1
  O  O48  1  0.31337300  0.35069900  0.54985600  1
  O  O49  1  0.69747000  0.67164000  1.00000000  1
  O  O50  1  0.19747000  0.67164000  0.88621000  1
  O  O51  1  0.69747000  0.67164000  0.77241000  1
  O  O52  1  0.19512000  0.65339800  0.65904800  1
  O  O53  1  0.68573300  0.65571400  0.55265300  1
  O  O54  1  0.30253000  0.67164000  1.00000000  1
  O  O55  1  0.80253000  0.67164000  0.88621000  1
  O  O56  1  0.30253000  0.67164000  0.77241000  1
  O  O57  1  0.80599600  0.65440600  0.66009000  1
  O  O58  1  0.31367700  0.65561500  0.55564500  1
  O  O59  1  1.00000000  0.17164000  0.95506000  1
  O  O60  1  0.50000000  0.17164000  0.84126000  1
  O  O61  1  0.00021600  0.15531300  0.72933600  1
  O  O62  1  0.49841000  0.17478800  0.61157500  1
  O  O63  1  0.50000000  0.17164000  0.93115000  1
  O  O64  1  1.00000000  0.17164000  0.81736000  1
  O  O65  1  0.50116200  0.16432300  0.70246400  1
  O  O66  1  0.99757500  0.19417300  0.59376400  1
  O  O67  1  1.00000000  0.50000000  0.95668000  1
  O  O68  1  0.50000000  0.50000000  0.84289000  1
  O  O69  1  0.00049200  0.50002000  0.72830400  1
  O  O70  1  0.50798700  0.49132500  0.61467900  1
  O  O71  1  0.50000000  0.50000000  0.92952000  1
  O  O72  1  1.00000000  0.50000000  0.81573000  1
  O  O73  1  0.49966700  0.49723200  0.70380000  1
  O  O74  1  0.99668800  0.49668500  0.58470300  1
  O  O75  1  0.69034000  0.00000000  1.00000000  1
  O  O76  1  0.19034000  1.00000000  0.88621000  1
  O  O77  1  0.69034000  0.00000000  0.77241000  1
  O  O78  1  0.19118400  0.01037300  0.65044100  1
  O  O79  1  0.76440000  0.00876200  0.54859500  1
  O  O80  1  0.30966000  1.00000000  0.00000000  1
  O  O81  1  0.80966000  0.00000000  0.88621000  1
  O  O82  1  0.30966000  1.00000000  0.77241000  1
  O  O83  1  0.81067500  0.01119800  0.64934600  1
  O  O84  1  0.22229200  0.00479200  0.54875300  1
