# generated using pymatgen
data_MgTiMnVZnCrFeCoCuNiSb20ClO54
_symmetry_space_group_name_H-M   'P 1'
_cell_length_a   6.73216500
_cell_length_b   9.45414000
_cell_length_c   29.59234500
_cell_angle_alpha   89.95784500
_cell_angle_beta   89.91047300
_cell_angle_gamma   89.79197200
_symmetry_Int_Tables_number   1
_chemical_formula_structural   MgTiMnVZnCrFeCoCuNiSb20ClO54
_chemical_formula_sum
'Mg1 Ti1 Mn1 V1 Zn1 Cr1 Fe1 Co1 Cu1 Ni1 Sb20 Cl1 O54'
_cell_volume   1883.44374819
_cell_formula_units_Z   1
loop_
 _symmetry_equiv_pos_site_id
 _symmetry_equiv_pos_as_xyz
  1  'x, y, z'
loop_
 _atom_site_type_symbol
 _atom_site_label
 _atom_site_symmetry_multiplicity
 _atom_site_fract_x
 _atom_site_fract_y
 _atom_site_fract_z
 _atom_site_occupancy
  Mg  Mg0  1  0.51364300  0.16847500  0.44986000  1
  Ti  Ti1  1  0.00000000  0.16768000  0.11379000  1
  Mn  Mn2  1  1.00000000  0.66768000  0.22759000  1
  V  V3  1  0.45834500  0.50724300  0.45643500  1
  Zn  Zn4  1  0.50000000  0.33232000  0.11379000  1
  Cr  Cr5  1  0.00257600  0.83433500  0.33807000  1
  Fe  Fe6  1  0.53745900  0.85483700  0.44948900  1
  Co  Co7  1  0.93997200  0.66824200  0.43310700  1
  Cu  Cu8  1  0.50000000  0.16768000  0.00000000  1
  Ni  Ni9  1  0.50000000  0.16768000  0.22759000  1
  Sb  Sb10  1  0.00000000  0.00000000  0.00000000  1
  Sb  Sb11  1  0.50000000  1.00000000  0.11379000  1
  Sb  Sb12  1  0.00000000  0.00000000  0.22759000  1
  Sb  Sb13  1  0.50012800  0.00290200  0.33787600  1
  Sb  Sb14  1  0.02787700  0.96664800  0.46236700  1
  Sb  Sb15  1  0.50000000  0.50000000  0.00000000  1
  Sb  Sb16  1  1.00000000  0.50000000  0.11379000  1
  Sb  Sb17  1  0.50000000  0.50000000  0.22759000  1
  Sb  Sb18  1  0.00106900  0.50215600  0.33930700  1
  Sb  Sb19  1  1.00000000  0.66768000  0.00000000  1
  Sb  Sb20  1  0.50000000  0.66768000  0.11379000  1
  Sb  Sb21  1  0.49995400  0.66833400  0.34545300  1
  Sb  Sb22  1  0.99928100  0.15220900  0.35123100  1
  Sb  Sb23  1  0.50000000  0.83232000  0.00000000  1
  Sb  Sb24  1  1.00000000  0.83232000  0.11379000  1
  Sb  Sb25  1  0.50000000  0.83232000  0.22759000  1
  Sb  Sb26  1  0.00000000  0.33232000  0.00000000  1
  Sb  Sb27  1  0.00000000  0.33232000  0.22759000  1
  Sb  Sb28  1  0.50074500  0.33296500  0.34052400  1
  Sb  Sb29  1  0.97368100  0.35234100  0.46197800  1
  Cl  Cl30  1  0.52299600  0.51417600  0.53000000  1
  O  O31  1  1.00000000  0.82836000  0.04494000  1
  O  O32  1  0.50000000  0.82836000  0.15874000  1
  O  O33  1  0.99980400  0.84474300  0.27065200  1
  O  O34  1  0.49646900  0.84521900  0.38363400  1
  O  O35  1  0.50000000  0.82836000  0.06885000  1
  O  O36  1  0.00000000  0.82836000  0.18264000  1
  O  O37  1  0.50107200  0.83048700  0.29612600  1
  O  O38  1  0.01177200  0.84339800  0.40592300  1
  O  O39  1  0.30253000  0.32836000  0.00000000  1
  O  O40  1  0.80253000  0.32836000  0.11379000  1
  O  O41  1  0.30253000  0.32836000  0.22759000  1
  O  O42  1  0.79571300  0.34517100  0.33602700  1
  O  O43  1  0.32515600  0.35141600  0.45434200  1
  O  O44  1  0.69747000  0.32836000  0.00000000  1
  O  O45  1  0.19747000  0.32836000  0.11379000  1
  O  O46  1  0.69747000  0.32836000  0.22759000  1
  O  O47  1  0.20430800  0.34357600  0.33625600  1
  O  O48  1  0.68831800  0.34210000  0.44992800  1
  O  O49  1  0.30253000  0.67164000  0.00000000  1
  O  O50  1  0.80253000  0.67164000  0.11379000  1
  O  O51  1  0.30253000  0.67164000  0.22759000  1
  O  O52  1  0.81128600  0.67006700  0.34185800  1
  O  O53  1  0.27503900  0.62786800  0.45339000  1
  O  O54  1  0.69747000  0.67164000  0.00000000  1
  O  O55  1  0.19747000  0.67164000  0.11379000  1
  O  O56  1  0.69747000  0.67164000  0.22759000  1
  O  O57  1  0.19144300  0.66878100  0.33928800  1
  O  O58  1  0.66716900  0.66882800  0.44818600  1
  O  O59  1  0.00000000  0.17164000  0.04494000  1
  O  O60  1  0.50000000  0.17164000  0.15874000  1
  O  O61  1  0.99978400  0.15531300  0.27066400  1
  O  O62  1  0.49754900  0.16454200  0.38204600  1
  O  O63  1  0.50000000  0.17164000  0.06885000  1
  O  O64  1  0.00000000  0.17164000  0.18264000  1
  O  O65  1  0.50218200  0.16944000  0.29578900  1
  O  O66  1  0.02701600  0.16248200  0.43046100  1
  O  O67  1  1.00000000  0.50000000  0.04332000  1
  O  O68  1  0.50000000  0.50000000  0.15711000  1
  O  O69  1  0.99950800  0.50002000  0.27169600  1
  O  O70  1  0.49688800  0.49496600  0.38551300  1
  O  O71  1  0.50000000  0.50000000  0.07048000  1
  O  O72  1  1.00000000  0.50000000  0.18427000  1
  O  O73  1  0.50240000  0.50525400  0.29702400  1
  O  O74  1  0.00165900  0.48621700  0.40624000  1
  O  O75  1  0.30966000  0.00000000  0.00000000  1
  O  O76  1  0.80966000  1.00000000  0.11379000  1
  O  O77  1  0.30966000  0.00000000  0.22759000  1
  O  O78  1  0.79829100  0.98559500  0.33814000  1
  O  O79  1  0.33541200  0.99021100  0.45837300  1
  O  O80  1  0.69034000  1.00000000  0.00000000  1
  O  O81  1  0.19034000  0.00000000  0.11379000  1
  O  O82  1  0.69034000  1.00000000  0.22759000  1
  O  O83  1  0.20180700  0.98739100  0.33734100  1
  O  O84  1  0.71510800  0.00159200  0.45625500  1
