# generated using pymatgen
data_MgTiMnVZnCrFeCoCuNiSb20ClO54
_symmetry_space_group_name_H-M   'P 1'
_cell_length_a   6.68980700
_cell_length_b   9.44461600
_cell_length_c   28.94457500
_cell_angle_alpha   90.23885800
_cell_angle_beta   89.94341000
_cell_angle_gamma   89.99631900
_symmetry_Int_Tables_number   1
_chemical_formula_structural   MgTiMnVZnCrFeCoCuNiSb20ClO54
_chemical_formula_sum
'Mg1 Ti1 Mn1 V1 Zn1 Cr1 Fe1 Co1 Cu1 Ni1 Sb20 Cl1 O54'
_cell_volume   1828.77840190
_cell_formula_units_Z   1
loop_
 _symmetry_equiv_pos_site_id
 _symmetry_equiv_pos_as_xyz
  1  'x, y, z'
loop_
 _atom_site_type_symbol
 _atom_site_label
 _atom_site_symmetry_multiplicity
 _atom_site_fract_x
 _atom_site_fract_y
 _atom_site_fract_z
 _atom_site_occupancy
  Mg  Mg0  1  0.00000000  0.66768000  0.77241000  1
  Ti  Ti1  1  0.00000000  0.33232000  0.77241000  1
  Mn  Mn2  1  0.49918000  0.18181800  0.54682000  1
  V  V3  1  0.50017200  0.49873800  0.54501100  1
  Zn  Zn4  1  0.00000000  0.50000000  0.88621000  1
  Cr  Cr5  1  0.50000000  0.66768000  0.88621000  1
  Fe  Fe6  1  0.00000300  0.16337900  0.66214100  1
  Co  Co7  1  0.50000000  0.83232000  0.77241000  1
  Cu  Cu8  1  0.50000000  0.16768000  0.77241000  1
  Ni  Ni9  1  0.00000000  0.16768000  0.88621000  1
  Sb  Sb10  1  0.00000000  0.00000000  0.00000000  1
  Sb  Sb11  1  0.50000000  0.00000000  0.88621000  1
  Sb  Sb12  1  0.00000000  1.00000000  0.77241000  1
  Sb  Sb13  1  0.49967100  0.00082000  0.66049300  1
  Sb  Sb14  1  0.99896500  0.00623200  0.53822400  1
  Sb  Sb15  1  0.50000000  0.50000000  1.00000000  1
  Sb  Sb16  1  0.50000000  0.50000000  0.77241000  1
  Sb  Sb17  1  0.99938500  0.48964100  0.66166600  1
  Sb  Sb18  1  1.00000000  0.66768000  1.00000000  1
  Sb  Sb19  1  0.49915600  0.66569200  0.65524900  1
  Sb  Sb20  1  0.00244900  0.65718500  0.53932500  1
  Sb  Sb21  1  0.50000000  0.16768000  1.00000000  1
  Sb  Sb22  1  0.50000000  0.83232000  1.00000000  1
  Sb  Sb23  1  1.00000000  0.83232000  0.88621000  1
  Sb  Sb24  1  0.99919400  0.84033500  0.66074800  1
  Sb  Sb25  1  0.49933600  0.84759400  0.53822200  1
  Sb  Sb26  1  0.00000000  0.33232000  1.00000000  1
  Sb  Sb27  1  0.50000000  0.33232000  0.88621000  1
  Sb  Sb28  1  0.49979200  0.32576500  0.65881000  1
  Sb  Sb29  1  0.99963000  0.32704500  0.54064500  1
  Cl  Cl30  1  0.48979000  0.51121500  0.46725500  1
  O  O31  1  0.00000000  0.82836000  0.95506000  1
  O  O32  1  0.50000000  0.82836000  0.84126000  1
  O  O33  1  0.00019600  0.84474300  0.72934800  1
  O  O34  1  0.50257000  0.84114600  0.60950700  1
  O  O35  1  0.50000000  0.82836000  0.93115000  1
  O  O36  1  0.00000000  0.82836000  0.81736000  1
  O  O37  1  0.49881200  0.83033400  0.70111800  1
  O  O38  1  0.99635100  0.83396800  0.58391700  1
  O  O39  1  0.69747000  0.32836000  1.00000000  1
  O  O40  1  0.19747000  0.32836000  0.88621000  1
  O  O41  1  0.69747000  0.32836000  0.77241000  1
  O  O42  1  0.19622600  0.32814200  0.65674200  1
  O  O43  1  0.68058900  0.33553600  0.54551500  1
  O  O44  1  0.30253000  0.32836000  1.00000000  1
  O  O45  1  0.80253000  0.32836000  0.88621000  1
  O  O46  1  0.30253000  0.32836000  0.77241000  1
  O  O47  1  0.80366400  0.32782300  0.65722900  1
  O  O48  1  0.31837300  0.33617600  0.54697000  1
  O  O49  1  0.69747000  0.67164000  1.00000000  1
  O  O50  1  0.19747000  0.67164000  0.88621000  1
  O  O51  1  0.69747000  0.67164000  0.77241000  1
  O  O52  1  0.19189400  0.66521200  0.65512000  1
  O  O53  1  0.68961500  0.63566200  0.55098300  1
  O  O54  1  0.30253000  0.67164000  1.00000000  1
  O  O55  1  0.80253000  0.67164000  0.88621000  1
  O  O56  1  0.30253000  0.67164000  0.77241000  1
  O  O57  1  0.80651300  0.66519400  0.65535500  1
  O  O58  1  0.30897300  0.63884400  0.55266600  1
  O  O59  1  0.00000000  0.17164000  0.95506000  1
  O  O60  1  0.50000000  0.17164000  0.84126000  1
  O  O61  1  0.00021600  0.15531300  0.72933600  1
  O  O62  1  0.50114200  0.16316300  0.61497700  1
  O  O63  1  0.50000000  0.17164000  0.93115000  1
  O  O64  1  0.00000000  0.17164000  0.81736000  1
  O  O65  1  0.49807100  0.16610000  0.70340400  1
  O  O66  1  0.99851400  0.16488400  0.58645000  1
  O  O67  1  1.00000000  0.50000000  0.95668000  1
  O  O68  1  0.50000000  0.50000000  0.84289000  1
  O  O69  1  0.00049200  0.50002000  0.72830400  1
  O  O70  1  0.50235000  0.48733600  0.61364600  1
  O  O71  1  0.50000000  0.50000000  0.92952000  1
  O  O72  1  0.00000000  0.50000000  0.81573000  1
  O  O73  1  0.49874600  0.49712900  0.70075100  1
  O  O74  1  0.99708900  0.49211700  0.58811000  1
  O  O75  1  0.69034000  0.00000000  0.00000000  1
  O  O76  1  0.19034000  0.00000000  0.88621000  1
  O  O77  1  0.69034000  0.00000000  0.77241000  1
  O  O78  1  0.19645800  0.00015100  0.65432200  1
  O  O79  1  0.68458500  0.02656900  0.54172800  1
  O  O80  1  0.30966000  0.00000000  1.00000000  1
  O  O81  1  0.80966000  0.00000000  0.88621000  1
  O  O82  1  0.30966000  0.00000000  0.77241000  1
  O  O83  1  0.80292700  0.00082200  0.65521300  1
  O  O84  1  0.31369400  0.02589500  0.54207000  1
