# generated using pymatgen
data_MgTiMnVZnCrFeCoCuNiSb20ClO54
_symmetry_space_group_name_H-M   'P 1'
_cell_length_a   6.71100900
_cell_length_b   9.57919600
_cell_length_c   29.40939600
_cell_angle_alpha   90.08232700
_cell_angle_beta   89.94508700
_cell_angle_gamma   89.67307900
_symmetry_Int_Tables_number   1
_chemical_formula_structural   MgTiMnVZnCrFeCoCuNiSb20ClO54
_chemical_formula_sum
'Mg1 Ti1 Mn1 V1 Zn1 Cr1 Fe1 Co1 Cu1 Ni1 Sb20 Cl1 O54'
_cell_volume   1890.58089572
_cell_formula_units_Z   1
loop_
 _symmetry_equiv_pos_site_id
 _symmetry_equiv_pos_as_xyz
  1  'x, y, z'
loop_
 _atom_site_type_symbol
 _atom_site_label
 _atom_site_symmetry_multiplicity
 _atom_site_fract_x
 _atom_site_fract_y
 _atom_site_fract_z
 _atom_site_occupancy
  Mg  Mg0  1  0.50000000  0.83232000  0.22759000  1
  Ti  Ti1  1  0.49617400  0.66294100  0.33752100  1
  Mn  Mn2  1  0.50000000  0.50000000  0.22759000  1
  V  V3  1  0.55444100  0.51390400  0.45422000  1
  Zn  Zn4  1  0.05515100  0.65327000  0.44273300  1
  Cr  Cr5  1  0.99167700  0.32981900  0.44039600  1
  Fe  Fe6  1  0.00000000  0.33232000  0.22759000  1
  Co  Co7  1  0.50000000  0.83232000  0.00000000  1
  Cu  Cu8  1  0.50000000  0.33232000  0.11379000  1
  Ni  Ni9  1  0.48173800  0.19176000  0.44880000  1
  Sb  Sb10  1  0.00000000  0.00000000  0.00000000  1
  Sb  Sb11  1  0.50000000  0.00000000  0.11379000  1
  Sb  Sb12  1  0.00000000  0.00000000  0.22759000  1
  Sb  Sb13  1  0.49499300  0.99818100  0.34269400  1
  Sb  Sb14  1  0.99309600  0.02314000  0.46365000  1
  Sb  Sb15  1  0.50000000  0.50000000  0.00000000  1
  Sb  Sb16  1  0.00000000  0.50000000  0.11379000  1
  Sb  Sb17  1  0.99730500  0.50212900  0.33812000  1
  Sb  Sb18  1  0.00000000  0.33232000  0.00000000  1
  Sb  Sb19  1  0.49894800  0.34381800  0.34173900  1
  Sb  Sb20  1  0.00000000  0.83232000  0.11379000  1
  Sb  Sb21  1  0.99030600  0.83000400  0.34966400  1
  Sb  Sb22  1  0.50061600  0.86527000  0.45669300  1
  Sb  Sb23  1  0.50000000  0.16768000  0.00000000  1
  Sb  Sb24  1  1.00000000  0.16768000  0.11379000  1
  Sb  Sb25  1  0.50000000  0.16768000  0.22759000  1
  Sb  Sb26  1  0.99665800  0.16568300  0.33834500  1
  Sb  Sb27  1  0.00000000  0.66768000  0.00000000  1
  Sb  Sb28  1  0.50000000  0.66768000  0.11379000  1
  Sb  Sb29  1  1.00000000  0.66768000  0.22759000  1
  Cl  Cl30  1  0.50684800  0.45436300  0.52755300  1
  O  O31  1  0.00000000  0.17164000  0.04494000  1
  O  O32  1  0.50000000  0.17164000  0.15874000  1
  O  O33  1  0.00019600  0.15525700  0.27065200  1
  O  O34  1  0.49098200  0.17414100  0.38269400  1
  O  O35  1  0.50000000  0.17164000  0.06885000  1
  O  O36  1  0.00000000  0.17164000  0.18264000  1
  O  O37  1  0.49504800  0.16533600  0.29720800  1
  O  O38  1  0.97773800  0.16274700  0.40769600  1
  O  O39  1  0.69747000  0.67164000  0.00000000  1
  O  O40  1  0.19747000  0.67164000  0.11379000  1
  O  O41  1  0.69747000  0.67164000  0.22759000  1
  O  O42  1  0.20171800  0.65200700  0.34373700  1
  O  O43  1  0.73517700  0.63223100  0.45865100  1
  O  O44  1  0.30253000  0.67164000  0.00000000  1
  O  O45  1  0.80253000  0.67164000  0.11379000  1
  O  O46  1  0.30253000  0.67164000  0.22759000  1
  O  O47  1  0.78960800  0.65148300  0.33965500  1
  O  O48  1  0.33510000  0.62095900  0.45525800  1
  O  O49  1  0.69747000  0.32836000  0.00000000  1
  O  O50  1  0.19747000  0.32836000  0.11379000  1
  O  O51  1  0.69747000  0.32836000  0.22759000  1
  O  O52  1  0.18813200  0.33249400  0.33870200  1
  O  O53  1  0.68880100  0.34472900  0.44769800  1
  O  O54  1  0.30253000  0.32836000  0.00000000  1
  O  O55  1  0.80253000  0.32836000  0.11379000  1
  O  O56  1  0.30253000  0.32836000  0.22759000  1
  O  O57  1  0.80756400  0.33343200  0.33687900  1
  O  O58  1  0.22364200  0.30877800  0.46043700  1
  O  O59  1  1.00000000  0.82836000  0.04494000  1
  O  O60  1  0.50000000  0.82836000  0.15874000  1
  O  O61  1  0.00021600  0.84468700  0.27066400  1
  O  O62  1  0.50218000  0.83249700  0.38750400  1
  O  O63  1  0.50000000  0.82836000  0.06885000  1
  O  O64  1  0.00000000  0.82836000  0.18264000  1
  O  O65  1  0.49385900  0.82998100  0.30186100  1
  O  O66  1  0.99556900  0.84564900  0.42671700  1
  O  O67  1  0.00000000  0.50000000  0.04332000  1
  O  O68  1  0.50000000  0.50000000  0.15711000  1
  O  O69  1  0.00049200  0.49998000  0.27169600  1
  O  O70  1  0.50597400  0.50655200  0.38598500  1
  O  O71  1  0.50000000  0.50000000  0.07048000  1
  O  O72  1  0.00000000  0.50000000  0.18427000  1
  O  O73  1  0.49178300  0.50841300  0.29704000  1
  O  O74  1  0.98843300  0.49027300  0.40521800  1
  O  O75  1  0.69034000  0.00000000  0.00000000  1
  O  O76  1  0.19034000  0.00000000  0.11379000  1
  O  O77  1  0.69034000  0.00000000  0.22759000  1
  O  O78  1  0.19555200  0.00957100  0.34204500  1
  O  O79  1  0.68098600  0.03237800  0.45182400  1
  O  O80  1  0.30966000  0.00000000  0.00000000  1
  O  O81  1  0.80966000  0.00000000  0.11379000  1
  O  O82  1  0.30966000  0.00000000  0.22759000  1
  O  O83  1  0.79319500  0.01268300  0.33906000  1
  O  O84  1  0.30506500  0.02568800  0.45075400  1
