# generated using pymatgen
data_MgTiMnVZnCrFeCoCuNiSb20ClO54
_symmetry_space_group_name_H-M   'P 1'
_cell_length_a   6.68834500
_cell_length_b   9.59291100
_cell_length_c   29.72847900
_cell_angle_alpha   89.85314100
_cell_angle_beta   89.99604800
_cell_angle_gamma   89.96433100
_symmetry_Int_Tables_number   1
_chemical_formula_structural   MgTiMnVZnCrFeCoCuNiSb20ClO54
_chemical_formula_sum
'Mg1 Ti1 Mn1 V1 Zn1 Cr1 Fe1 Co1 Cu1 Ni1 Sb20 Cl1 O54'
_cell_volume   1907.39333309
_cell_formula_units_Z   1
loop_
 _symmetry_equiv_pos_site_id
 _symmetry_equiv_pos_as_xyz
  1  'x, y, z'
loop_
 _atom_site_type_symbol
 _atom_site_label
 _atom_site_symmetry_multiplicity
 _atom_site_fract_x
 _atom_site_fract_y
 _atom_site_fract_z
 _atom_site_occupancy
  Mg  Mg0  1  0.49868800  0.00102600  0.66237400  1
  Ti  Ti1  1  0.50000000  0.83232000  0.77241000  1
  Mn  Mn2  1  0.00152300  0.66423600  0.56364700  1
  V  V3  1  0.49622500  0.49957700  0.55142300  1
  Zn  Zn4  1  0.50000000  0.16768000  0.00000000  1
  Cr  Cr5  1  0.50000000  0.83232000  0.00000000  1
  Fe  Fe6  1  0.00000000  0.33232000  0.77241000  1
  Co  Co7  1  0.00000000  0.00000000  0.77241000  1
  Cu  Cu8  1  0.00027900  0.16098500  0.66539300  1
  Ni  Ni9  1  0.00193500  0.01285200  0.57343000  1
  Sb  Sb10  1  0.00000000  0.00000000  0.00000000  1
  Sb  Sb11  1  0.50000000  0.00000000  0.88621000  1
  Sb  Sb12  1  0.50000000  0.50000000  0.00000000  1
  Sb  Sb13  1  0.00000000  0.50000000  0.88621000  1
  Sb  Sb14  1  0.50000000  0.50000000  0.77241000  1
  Sb  Sb15  1  0.00001200  0.49352700  0.66163500  1
  Sb  Sb16  1  0.00000000  0.33232000  0.00000000  1
  Sb  Sb17  1  0.50000000  0.33232000  0.88621000  1
  Sb  Sb18  1  0.50011600  0.33265400  0.66061400  1
  Sb  Sb19  1  0.99458600  0.33560800  0.54720400  1
  Sb  Sb20  1  0.00000000  0.83232000  0.88621000  1
  Sb  Sb21  1  0.99870600  0.85270000  0.66171400  1
  Sb  Sb22  1  0.50596400  0.82414700  0.54900300  1
  Sb  Sb23  1  0.00000000  0.16768000  0.88621000  1
  Sb  Sb24  1  0.50000000  0.16768000  0.77241000  1
  Sb  Sb25  1  0.49927300  0.15490600  0.55196200  1
  Sb  Sb26  1  0.00000000  0.66768000  0.00000000  1
  Sb  Sb27  1  0.50000000  0.66768000  0.88621000  1
  Sb  Sb28  1  0.00000000  0.66768000  0.77241000  1
  Sb  Sb29  1  0.49954700  0.67530700  0.66081800  1
  Cl  Cl30  1  0.50729800  0.52072200  0.47663400  1
  O  O31  1  0.00000000  0.17164000  0.95506000  1
  O  O32  1  0.50000000  0.17164000  0.84126000  1
  O  O33  1  0.99980400  0.15525700  0.72934800  1
  O  O34  1  0.49768200  0.17601700  0.61873100  1
  O  O35  1  0.50000000  0.17164000  0.93115000  1
  O  O36  1  0.00000000  0.17164000  0.81736000  1
  O  O37  1  0.50037000  0.17672600  0.70509900  1
  O  O38  1  0.00233300  0.19291700  0.59320900  1
  O  O39  1  0.30253000  0.67164000  0.00000000  1
  O  O40  1  0.80253000  0.67164000  0.88621000  1
  O  O41  1  0.30253000  0.67164000  0.77241000  1
  O  O42  1  0.81044100  0.66733500  0.66153800  1
  O  O43  1  0.29165100  0.65011900  0.55503400  1
  O  O44  1  0.69747000  0.67164000  0.00000000  1
  O  O45  1  0.19747000  0.67164000  0.88621000  1
  O  O46  1  0.69747000  0.67164000  0.77241000  1
  O  O47  1  0.18881400  0.66750800  0.66185300  1
  O  O48  1  0.71504800  0.65374800  0.55523900  1
  O  O49  1  0.30253000  0.32836000  0.00000000  1
  O  O50  1  0.80253000  0.32836000  0.88621000  1
  O  O51  1  0.30253000  0.32836000  0.77241000  1
  O  O52  1  0.80010300  0.34061600  0.66321000  1
  O  O53  1  0.31519000  0.36862600  0.55450400  1
  O  O54  1  0.69747000  0.32836000  0.00000000  1
  O  O55  1  0.19747000  0.32836000  0.88621000  1
  O  O56  1  0.69747000  0.32836000  0.77241000  1
  O  O57  1  0.20034500  0.34103800  0.66329200  1
  O  O58  1  0.68192600  0.36765400  0.55614000  1
  O  O59  1  0.00000000  0.82836000  0.95506000  1
  O  O60  1  0.50000000  0.82836000  0.84126000  1
  O  O61  1  0.99978400  0.84468700  0.72933600  1
  O  O62  1  0.49818400  0.82650400  0.61741100  1
  O  O63  1  0.50000000  0.82836000  0.93115000  1
  O  O64  1  0.00000000  0.82836000  0.81736000  1
  O  O65  1  0.49986200  0.81984100  0.70766100  1
  O  O66  1  0.00320600  0.83031500  0.59219300  1
  O  O67  1  0.00000000  0.50000000  0.95668000  1
  O  O68  1  0.50000000  0.50000000  0.84289000  1
  O  O69  1  0.99950800  0.49998000  0.72830400  1
  O  O70  1  0.49997000  0.50833300  0.61977700  1
  O  O71  1  0.50000000  0.50000000  0.92952000  1
  O  O72  1  0.00000000  0.50000000  0.81573000  1
  O  O73  1  0.50047800  0.50605200  0.70377000  1
  O  O74  1  0.00191400  0.49007600  0.59418100  1
  O  O75  1  0.30966000  0.00000000  0.00000000  1
  O  O76  1  0.80966000  0.00000000  0.88621000  1
  O  O77  1  0.30966000  0.00000000  0.77241000  1
  O  O78  1  0.79670300  0.99468000  0.66069200  1
  O  O79  1  0.28116600  0.00232500  0.55942500  1
  O  O80  1  0.69034000  0.00000000  1.00000000  1
  O  O81  1  0.19034000  0.00000000  0.88621000  1
  O  O82  1  0.69034000  0.00000000  0.77241000  1
  O  O83  1  0.20071400  0.99474500  0.66091200  1
  O  O84  1  0.72008000  0.00214300  0.55970300  1
