# generated using pymatgen
data_MgTiMnVZnCrFeCoCuNiSb20ClO54
_symmetry_space_group_name_H-M   'P 1'
_cell_length_a   6.68365000
_cell_length_b   9.51861900
_cell_length_c   28.73894300
_cell_angle_alpha   90.13864700
_cell_angle_beta   89.99278200
_cell_angle_gamma   89.98688100
_symmetry_Int_Tables_number   1
_chemical_formula_structural   MgTiMnVZnCrFeCoCuNiSb20ClO54
_chemical_formula_sum
'Mg1 Ti1 Mn1 V1 Zn1 Cr1 Fe1 Co1 Cu1 Ni1 Sb20 Cl1 O54'
_cell_volume   1828.34078680
_cell_formula_units_Z   1
loop_
 _symmetry_equiv_pos_site_id
 _symmetry_equiv_pos_as_xyz
  1  'x, y, z'
loop_
 _atom_site_type_symbol
 _atom_site_label
 _atom_site_symmetry_multiplicity
 _atom_site_fract_x
 _atom_site_fract_y
 _atom_site_fract_z
 _atom_site_occupancy
  Mg  Mg0  1  1.00000000  0.33232000  0.00000000  1
  Ti  Ti1  1  0.99796700  0.35012900  0.55466200  1
  Mn  Mn2  1  1.00000000  0.33232000  0.77241000  1
  V  V3  1  0.50000000  0.83232000  0.00000000  1
  Zn  Zn4  1  0.50003800  0.01968100  0.65528900  1
  Cr  Cr5  1  0.49875200  0.50892000  0.54042000  1
  Fe  Fe6  1  0.50000000  0.16768000  0.00000000  1
  Co  Co7  1  0.50029200  0.32916900  0.65674300  1
  Cu  Cu8  1  0.50000000  0.33232000  0.88621000  1
  Ni  Ni9  1  0.50000000  0.66768000  0.88621000  1
  Sb  Sb10  1  0.00000000  0.00000000  0.00000000  1
  Sb  Sb11  1  0.50000000  0.00000000  0.88621000  1
  Sb  Sb12  1  1.00000000  0.00000000  0.77241000  1
  Sb  Sb13  1  0.00008500  0.96934600  0.51436800  1
  Sb  Sb14  1  0.50000000  0.50000000  0.00000000  1
  Sb  Sb15  1  1.00000000  0.50000000  0.88621000  1
  Sb  Sb16  1  0.50000000  0.50000000  0.77241000  1
  Sb  Sb17  1  0.99982500  0.49755000  0.65942700  1
  Sb  Sb18  1  1.00000000  0.66768000  0.00000000  1
  Sb  Sb19  1  1.00000000  0.66768000  0.77241000  1
  Sb  Sb20  1  0.50017500  0.65513500  0.65729100  1
  Sb  Sb21  1  0.00119200  0.66579200  0.52052600  1
  Sb  Sb22  1  1.00000000  0.16768000  0.88621000  1
  Sb  Sb23  1  0.50000000  0.16768000  0.77241000  1
  Sb  Sb24  1  0.00005100  0.17240800  0.65750100  1
  Sb  Sb25  1  0.49809700  0.19370200  0.53906300  1
  Sb  Sb26  1  1.00000000  0.83232000  0.88621000  1
  Sb  Sb27  1  0.50000000  0.83232000  0.77241000  1
  Sb  Sb28  1  0.99966000  0.84843900  0.64415900  1
  Sb  Sb29  1  0.50089200  0.82732100  0.54844800  1
  Cl  Cl30  1  0.49146000  0.51927800  0.46155100  1
  O  O31  1  0.00000000  0.82836000  0.95506000  1
  O  O32  1  0.50000000  0.82836000  0.84126000  1
  O  O33  1  0.00019600  0.84474300  0.72934800  1
  O  O34  1  0.50367400  0.82894500  0.61671400  1
  O  O35  1  0.50000000  0.82836000  0.93115000  1
  O  O36  1  1.00000000  0.82836000  0.81736000  1
  O  O37  1  0.49932000  0.82216400  0.70364400  1
  O  O38  1  0.99634900  0.82749000  0.57034200  1
  O  O39  1  0.69747000  0.32836000  0.00000000  1
  O  O40  1  0.19747000  0.32836000  0.88621000  1
  O  O41  1  0.69747000  0.32836000  0.77241000  1
  O  O42  1  0.19546000  0.33450000  0.66161300  1
  O  O43  1  0.72119900  0.36258600  0.53785500  1
  O  O44  1  0.30253000  0.32836000  0.00000000  1
  O  O45  1  0.80253000  0.32836000  0.88621000  1
  O  O46  1  0.30253000  0.32836000  0.77241000  1
  O  O47  1  0.80443400  0.33432000  0.66186800  1
  O  O48  1  0.27439300  0.36391400  0.53845100  1
  O  O49  1  0.69747000  0.67164000  0.00000000  1
  O  O50  1  0.19747000  0.67164000  0.88621000  1
  O  O51  1  0.69747000  0.67164000  0.77241000  1
  O  O52  1  0.20021000  0.65562000  0.66216800  1
  O  O53  1  0.69083400  0.66572700  0.54115500  1
  O  O54  1  0.30253000  0.67164000  0.00000000  1
  O  O55  1  0.80253000  0.67164000  0.88621000  1
  O  O56  1  0.30253000  0.67164000  0.77241000  1
  O  O57  1  0.80016200  0.65587400  0.66263800  1
  O  O58  1  0.30869700  0.66628900  0.54323900  1
  O  O59  1  0.00000000  0.17164000  0.95506000  1
  O  O60  1  0.50000000  0.17164000  0.84126000  1
  O  O61  1  0.00021600  0.15531300  0.72933600  1
  O  O62  1  0.50033800  0.18130700  0.60690400  1
  O  O63  1  0.50000000  0.17164000  0.93115000  1
  O  O64  1  1.00000000  0.17164000  0.81736000  1
  O  O65  1  0.49977500  0.16678400  0.70468600  1
  O  O66  1  0.99879400  0.19079000  0.58737700  1
  O  O67  1  1.00000000  0.50000000  0.95668000  1
  O  O68  1  0.50000000  0.50000000  0.84289000  1
  O  O69  1  0.00049200  0.50002000  0.72830400  1
  O  O70  1  0.50060200  0.50070000  0.61144800  1
  O  O71  1  0.50000000  0.50000000  0.92952000  1
  O  O72  1  0.00000000  0.50000000  0.81573000  1
  O  O73  1  0.49997100  0.49732400  0.70405800  1
  O  O74  1  0.99502300  0.50705200  0.59129900  1
  O  O75  1  0.69034000  1.00000000  0.00000000  1
  O  O76  1  0.19034000  0.00000000  0.88621000  1
  O  O77  1  0.69034000  0.00000000  0.77241000  1
  O  O78  1  0.19505800  0.01610700  0.65337700  1
  O  O79  1  0.69449100  0.97818800  0.53354200  1
  O  O80  1  0.30966000  1.00000000  0.00000000  1
  O  O81  1  0.80966000  0.00000000  0.88621000  1
  O  O82  1  0.30966000  0.00000000  0.77241000  1
  O  O83  1  0.80499500  0.01616900  0.65367700  1
  O  O84  1  0.30391900  0.97693800  0.53476100  1
