# generated using pymatgen
data_MgTiMnVZnCrFeCoCuNiSb20ClO54
_symmetry_space_group_name_H-M   'P 1'
_cell_length_a   6.62222700
_cell_length_b   9.63457600
_cell_length_c   29.06391000
_cell_angle_alpha   90.16905600
_cell_angle_beta   89.98592100
_cell_angle_gamma   89.96535000
_symmetry_Int_Tables_number   1
_chemical_formula_structural   MgTiMnVZnCrFeCoCuNiSb20ClO54
_chemical_formula_sum
'Mg1 Ti1 Mn1 V1 Zn1 Cr1 Fe1 Co1 Cu1 Ni1 Sb20 Cl1 O54'
_cell_volume   1854.33727064
_cell_formula_units_Z   1
loop_
 _symmetry_equiv_pos_site_id
 _symmetry_equiv_pos_as_xyz
  1  'x, y, z'
loop_
 _atom_site_type_symbol
 _atom_site_label
 _atom_site_symmetry_multiplicity
 _atom_site_fract_x
 _atom_site_fract_y
 _atom_site_fract_z
 _atom_site_occupancy
  Mg  Mg0  1  0.99160700  0.99544100  0.56088600  1
  Ti  Ti1  1  1.00000000  0.16768000  0.88621000  1
  Mn  Mn2  1  0.50000000  1.00000000  0.88621000  1
  V  V3  1  0.00000000  0.00000000  0.00000000  1
  Zn  Zn4  1  0.50000000  0.50000000  0.77241000  1
  Cr  Cr5  1  0.50275000  0.48708100  0.54504300  1
  Fe  Fe6  1  0.50000000  0.66768000  0.88621000  1
  Co  Co7  1  0.50000000  0.83232000  0.77241000  1
  Cu  Cu8  1  0.00460500  0.34589000  0.55082800  1
  Ni  Ni9  1  0.00147900  0.83243300  0.65889300  1
  Sb  Sb10  1  0.00000000  1.00000000  0.77241000  1
  Sb  Sb11  1  0.50007600  0.99104000  0.65586100  1
  Sb  Sb12  1  0.50000000  0.50000000  1.00000000  1
  Sb  Sb13  1  0.00000000  0.50000000  0.88621000  1
  Sb  Sb14  1  0.99856200  0.51141400  0.65846000  1
  Sb  Sb15  1  0.00000000  0.66768000  1.00000000  1
  Sb  Sb16  1  0.00000000  0.66768000  0.77241000  1
  Sb  Sb17  1  0.50020700  0.66525500  0.65884400  1
  Sb  Sb18  1  0.00271100  0.66293200  0.54600000  1
  Sb  Sb19  1  0.50000000  0.16768000  1.00000000  1
  Sb  Sb20  1  0.50000000  0.16768000  0.77241000  1
  Sb  Sb21  1  0.99792800  0.16021500  0.65529500  1
  Sb  Sb22  1  0.49406600  0.15401500  0.53829600  1
  Sb  Sb23  1  0.50000000  0.83232000  1.00000000  1
  Sb  Sb24  1  0.00000000  0.83232000  0.88621000  1
  Sb  Sb25  1  0.49373300  0.81215100  0.53470400  1
  Sb  Sb26  1  0.00000000  0.33232000  1.00000000  1
  Sb  Sb27  1  0.50000000  0.33232000  0.88621000  1
  Sb  Sb28  1  1.00000000  0.33232000  0.77241000  1
  Sb  Sb29  1  0.49991500  0.33566500  0.65810000  1
  Cl  Cl30  1  0.47573800  0.52568400  0.46962200  1
  O  O31  1  0.00000000  0.82836000  0.95506000  1
  O  O32  1  0.50000000  0.82836000  0.84126000  1
  O  O33  1  0.00019600  0.84474300  0.72934800  1
  O  O34  1  0.49504900  0.82656300  0.61193700  1
  O  O35  1  0.50000000  0.82836000  0.93115000  1
  O  O36  1  0.00000000  0.82836000  0.81736000  1
  O  O37  1  0.49994900  0.83337600  0.70195700  1
  O  O38  1  0.00826000  0.81584600  0.59045400  1
  O  O39  1  0.69747000  0.32836000  1.00000000  1
  O  O40  1  0.19747000  0.32836000  0.88621000  1
  O  O41  1  0.69747000  0.32836000  0.77241000  1
  O  O42  1  0.18913300  0.33333333  0.66218200  1
  O  O43  1  0.70686400  0.37719300  0.54121900  1
  O  O44  1  0.30253000  0.32836000  1.00000000  1
  O  O45  1  0.80253000  0.32836000  0.88621000  1
  O  O46  1  0.30253000  0.32836000  0.77241000  1
  O  O47  1  0.80930500  0.33310200  0.66369200  1
  O  O48  1  0.30785600  0.35391900  0.54581800  1
  O  O49  1  0.69747000  0.67164000  1.00000000  1
  O  O50  1  0.19747000  0.67164000  0.88621000  1
  O  O51  1  0.69747000  0.67164000  0.77241000  1
  O  O52  1  0.19755600  0.66677400  0.66350400  1
  O  O53  1  0.68640900  0.65212200  0.55280100  1
  O  O54  1  0.30253000  0.67164000  1.00000000  1
  O  O55  1  0.80253000  0.67164000  0.88621000  1
  O  O56  1  0.30253000  0.67164000  0.77241000  1
  O  O57  1  0.80289700  0.66899500  0.66340400  1
  O  O58  1  0.32113800  0.63481400  0.55763600  1
  O  O59  1  0.00000000  0.17164000  0.95506000  1
  O  O60  1  0.50000000  0.17164000  0.84126000  1
  O  O61  1  0.00021600  0.15531300  0.72933600  1
  O  O62  1  0.50171900  0.16888200  0.61309300  1
  O  O63  1  0.50000000  0.17164000  0.93115000  1
  O  O64  1  1.00000000  0.17164000  0.81736000  1
  O  O65  1  0.49994300  0.16622500  0.70132200  1
  O  O66  1  0.98374600  0.17623600  0.58995200  1
  O  O67  1  0.00000000  0.50000000  0.95668000  1
  O  O68  1  0.50000000  0.50000000  0.84289000  1
  O  O69  1  0.00049200  0.50002000  0.72830400  1
  O  O70  1  0.51277100  0.49352300  0.61504900  1
  O  O71  1  0.50000000  0.50000000  0.92952000  1
  O  O72  1  0.00000000  0.50000000  0.81573000  1
  O  O73  1  0.49817900  0.49682400  0.70189900  1
  O  O74  1  0.99402100  0.50710000  0.59248500  1
  O  O75  1  0.69034000  0.00000000  1.00000000  1
  O  O76  1  0.19034000  1.00000000  0.88621000  1
  O  O77  1  0.69034000  1.00000000  0.77241000  1
  O  O78  1  0.19622200  0.00092400  0.65813100  1
  O  O79  1  0.69537700  0.98631200  0.54502600  1
  O  O80  1  0.30966000  0.00000000  1.00000000  1
  O  O81  1  0.80966000  1.00000000  0.88621000  1
  O  O82  1  0.30966000  1.00000000  0.77241000  1
  O  O83  1  0.80349900  0.99884700  0.65846200  1
  O  O84  1  0.28390000  0.00766600  0.54341200  1
