# generated using pymatgen
data_MgTiMnVZnCrFeCoCuNiSb20ClO54
_symmetry_space_group_name_H-M   'P 1'
_cell_length_a   6.69344600
_cell_length_b   9.57373100
_cell_length_c   29.18187700
_cell_angle_alpha   90.04398200
_cell_angle_beta   89.57397900
_cell_angle_gamma   89.85508000
_symmetry_Int_Tables_number   1
_chemical_formula_structural   MgTiMnVZnCrFeCoCuNiSb20ClO54
_chemical_formula_sum
'Mg1 Ti1 Mn1 V1 Zn1 Cr1 Fe1 Co1 Cu1 Ni1 Sb20 Cl1 O54'
_cell_volume   1869.95294580
_cell_formula_units_Z   1
loop_
 _symmetry_equiv_pos_site_id
 _symmetry_equiv_pos_as_xyz
  1  'x, y, z'
loop_
 _atom_site_type_symbol
 _atom_site_label
 _atom_site_symmetry_multiplicity
 _atom_site_fract_x
 _atom_site_fract_y
 _atom_site_fract_z
 _atom_site_occupancy
  Mg  Mg0  1  0.99756000  0.01515400  0.55438200  1
  Ti  Ti1  1  0.50329700  0.99608700  0.65689600  1
  Mn  Mn2  1  0.50000000  0.50000000  1.00000000  1
  V  V3  1  0.00000000  1.00000000  0.77241000  1
  Zn  Zn4  1  0.00000000  0.50000000  0.88621000  1
  Cr  Cr5  1  0.50062900  0.49817200  0.54821100  1
  Fe  Fe6  1  0.48946900  0.19137800  0.54839400  1
  Co  Co7  1  0.00460600  0.33285800  0.55667000  1
  Cu  Cu8  1  0.50000000  0.50000000  0.77241000  1
  Ni  Ni9  1  0.50000000  1.00000000  0.88621000  1
  Sb  Sb10  1  0.00000000  0.00000000  0.00000000  1
  Sb  Sb11  1  0.03850200  0.50462300  0.65399200  1
  Sb  Sb12  1  0.00000000  0.66768000  1.00000000  1
  Sb  Sb13  1  0.50000000  0.66768000  0.88621000  1
  Sb  Sb14  1  0.00000000  0.66768000  0.77241000  1
  Sb  Sb15  1  0.51376900  0.66173200  0.65119900  1
  Sb  Sb16  1  0.04211500  0.67678800  0.54007400  1
  Sb  Sb17  1  0.50000000  0.16768000  1.00000000  1
  Sb  Sb18  1  0.00000000  0.16768000  0.88621000  1
  Sb  Sb19  1  0.50000000  0.16768000  0.77241000  1
  Sb  Sb20  1  0.00026700  0.16323300  0.66031800  1
  Sb  Sb21  1  0.50000000  0.83232000  1.00000000  1
  Sb  Sb22  1  0.00000000  0.83232000  0.88621000  1
  Sb  Sb23  1  0.50000000  0.83232000  0.77241000  1
  Sb  Sb24  1  0.00529800  0.83839100  0.65915500  1
  Sb  Sb25  1  0.51162600  0.87803100  0.53730400  1
  Sb  Sb26  1  0.00000000  0.33232000  0.00000000  1
  Sb  Sb27  1  0.50000000  0.33232000  0.88621000  1
  Sb  Sb28  1  0.00000000  0.33232000  0.77241000  1
  Sb  Sb29  1  0.50863100  0.32353500  0.66096400  1
  Cl  Cl30  1  0.39183100  0.49677000  0.47606900  1
  O  O31  1  0.00000000  0.82836000  0.95506000  1
  O  O32  1  0.50000000  0.82836000  0.84126000  1
  O  O33  1  0.00019600  0.84474300  0.72934800  1
  O  O34  1  0.51234100  0.88144000  0.60797300  1
  O  O35  1  0.50000000  0.82836000  0.93115000  1
  O  O36  1  0.00000000  0.82836000  0.81736000  1
  O  O37  1  0.51076000  0.84760900  0.70186200  1
  O  O38  1  0.99346400  0.83284800  0.58959500  1
  O  O39  1  0.69747000  0.32836000  1.00000000  1
  O  O40  1  0.19747000  0.32836000  0.88621000  1
  O  O41  1  0.69747000  0.32836000  0.77241000  1
  O  O42  1  0.21151600  0.30403700  0.66973400  1
  O  O43  1  0.67360600  0.33398800  0.54526300  1
  O  O44  1  0.30253000  0.32836000  1.00000000  1
  O  O45  1  0.80253000  0.32836000  0.88621000  1
  O  O46  1  0.30253000  0.32836000  0.77241000  1
  O  O47  1  0.81002400  0.32549400  0.66395800  1
  O  O48  1  0.27919000  0.31349600  0.55021900  1
  O  O49  1  0.69747000  0.67164000  1.00000000  1
  O  O50  1  0.19747000  0.67164000  0.88621000  1
  O  O51  1  0.69747000  0.67164000  0.77241000  1
  O  O52  1  0.20866900  0.69230600  0.66645900  1
  O  O53  1  0.67975100  0.61527600  0.54596100  1
  O  O54  1  0.30253000  0.67164000  1.00000000  1
  O  O55  1  0.80253000  0.67164000  0.88621000  1
  O  O56  1  0.30253000  0.67164000  0.77241000  1
  O  O57  1  0.83255100  0.67316400  0.66463300  1
  O  O58  1  0.32083400  0.65644800  0.56117500  1
  O  O59  1  0.00000000  0.17164000  0.95506000  1
  O  O60  1  0.50000000  0.17164000  0.84126000  1
  O  O61  1  0.00021600  0.15531300  0.72933600  1
  O  O62  1  0.50973900  0.16179900  0.61843000  1
  O  O63  1  0.50000000  0.17164000  0.93115000  1
  O  O64  1  0.00000000  0.17164000  0.81736000  1
  O  O65  1  0.51607400  0.15751200  0.70424500  1
  O  O66  1  0.99112900  0.17260000  0.59465000  1
  O  O67  1  0.00000000  0.50000000  0.95668000  1
  O  O68  1  0.50000000  0.50000000  0.84289000  1
  O  O69  1  0.00049200  0.50002000  0.72830400  1
  O  O70  1  0.46773900  0.46649900  0.61181100  1
  O  O71  1  0.50000000  0.50000000  0.92952000  1
  O  O72  1  0.00000000  0.50000000  0.81573000  1
  O  O73  1  0.49950800  0.49459000  0.69981200  1
  O  O74  1  0.98163200  0.51420300  0.57880000  1
  O  O75  1  0.69034000  0.00000000  1.00000000  1
  O  O76  1  0.19034000  1.00000000  0.88621000  1
  O  O77  1  0.69034000  1.00000000  0.77241000  1
  O  O78  1  0.19826200  0.99953200  0.65928400  1
  O  O79  1  0.70129200  0.04234900  0.53724900  1
  O  O80  1  0.30966000  0.00000000  1.00000000  1
  O  O81  1  0.80966000  1.00000000  0.88621000  1
  O  O82  1  0.30966000  1.00000000  0.77241000  1
  O  O83  1  0.81014900  0.99728900  0.66026600  1
  O  O84  1  0.29917400  0.02839000  0.53734000  1
