# generated using pymatgen
data_MgTiMnVZnCrFeCoCuNiSb20ClO54
_symmetry_space_group_name_H-M   'P 1'
_cell_length_a   6.71968500
_cell_length_b   9.56122500
_cell_length_c   29.65722200
_cell_angle_alpha   90.06496700
_cell_angle_beta   89.74581200
_cell_angle_gamma   89.99935600
_symmetry_Int_Tables_number   1
_chemical_formula_structural   MgTiMnVZnCrFeCoCuNiSb20ClO54
_chemical_formula_sum
'Mg1 Ti1 Mn1 V1 Zn1 Cr1 Fe1 Co1 Cu1 Ni1 Sb20 Cl1 O54'
_cell_volume   1905.40968518
_cell_formula_units_Z   1
loop_
 _symmetry_equiv_pos_site_id
 _symmetry_equiv_pos_as_xyz
  1  'x, y, z'
loop_
 _atom_site_type_symbol
 _atom_site_label
 _atom_site_symmetry_multiplicity
 _atom_site_fract_x
 _atom_site_fract_y
 _atom_site_fract_z
 _atom_site_occupancy
  Mg  Mg0  1  0.50000000  0.83232000  0.00000000  1
  Ti  Ti1  1  0.02757300  0.80866300  0.66130600  1
  Mn  Mn2  1  0.50000000  0.33232000  0.88621000  1
  V  V3  1  0.47354500  0.18018900  0.55819100  1
  Zn  Zn4  1  0.99209700  0.47155300  0.66226800  1
  Cr  Cr5  1  0.50631600  0.48949600  0.55812900  1
  Fe  Fe6  1  0.00000000  0.33232000  0.77241000  1
  Co  Co7  1  0.49817600  0.32453100  0.66576300  1
  Cu  Cu8  1  0.50000000  0.16768000  0.77241000  1
  Ni  Ni9  1  0.99979600  0.18316900  0.66648000  1
  Sb  Sb10  1  0.00000000  0.00000000  0.00000000  1
  Sb  Sb11  1  0.50000000  0.00000000  0.88621000  1
  Sb  Sb12  1  0.00000000  0.00000000  0.77241000  1
  Sb  Sb13  1  0.49430100  0.00329200  0.66048300  1
  Sb  Sb14  1  0.93541600  0.00876300  0.57838900  1
  Sb  Sb15  1  0.50000000  0.50000000  0.00000000  1
  Sb  Sb16  1  1.00000000  0.50000000  0.88621000  1
  Sb  Sb17  1  0.50000000  0.50000000  0.77241000  1
  Sb  Sb18  1  0.00000000  0.66768000  0.00000000  1
  Sb  Sb19  1  0.50000000  0.66768000  0.88621000  1
  Sb  Sb20  1  0.00000000  0.66768000  0.77241000  1
  Sb  Sb21  1  0.51912400  0.65648800  0.65856800  1
  Sb  Sb22  1  0.00446600  0.65144500  0.54995700  1
  Sb  Sb23  1  0.50000000  0.16768000  0.00000000  1
  Sb  Sb24  1  0.00000000  0.16768000  0.88621000  1
  Sb  Sb25  1  1.00000000  0.83232000  0.88621000  1
  Sb  Sb26  1  0.50000000  0.83232000  0.77241000  1
  Sb  Sb27  1  0.48912800  0.80056800  0.54605400  1
  Sb  Sb28  1  0.00000000  0.33232000  0.00000000  1
  Sb  Sb29  1  0.99758900  0.32679300  0.54771300  1
  Cl  Cl30  1  0.48344000  0.56046200  0.48280300  1
  O  O31  1  1.00000000  0.82836000  0.95506000  1
  O  O32  1  0.50000000  0.82836000  0.84126000  1
  O  O33  1  0.00019600  0.84474300  0.72934800  1
  O  O34  1  0.50404900  0.83405500  0.61648700  1
  O  O35  1  0.50000000  0.82836000  0.93115000  1
  O  O36  1  0.00000000  0.82836000  0.81736000  1
  O  O37  1  0.51430100  0.83107100  0.70406800  1
  O  O38  1  0.00607800  0.79075000  0.59889700  1
  O  O39  1  0.69747000  0.32836000  0.00000000  1
  O  O40  1  0.19747000  0.32836000  0.88621000  1
  O  O41  1  0.69747000  0.32836000  0.77241000  1
  O  O42  1  0.22517900  0.32413000  0.66641700  1
  O  O43  1  0.67387500  0.33684500  0.54911200  1
  O  O44  1  0.30253000  0.32836000  0.00000000  1
  O  O45  1  0.80253000  0.32836000  0.88621000  1
  O  O46  1  0.30253000  0.32836000  0.77241000  1
  O  O47  1  0.77114200  0.32105300  0.66456800  1
  O  O48  1  0.31893800  0.34219200  0.55423400  1
  O  O49  1  0.69747000  0.67164000  0.00000000  1
  O  O50  1  0.19747000  0.67164000  0.88621000  1
  O  O51  1  0.69747000  0.67164000  0.77241000  1
  O  O52  1  0.22235800  0.67781500  0.66614500  1
  O  O53  1  0.69011600  0.65380400  0.56371100  1
  O  O54  1  0.30253000  0.67164000  0.00000000  1
  O  O55  1  0.80253000  0.67164000  0.88621000  1
  O  O56  1  0.30253000  0.67164000  0.77241000  1
  O  O57  1  0.81081600  0.67401600  0.66657200  1
  O  O58  1  0.31200100  0.64385000  0.56732700  1
  O  O59  1  0.00000000  0.17164000  0.95506000  1
  O  O60  1  0.50000000  0.17164000  0.84126000  1
  O  O61  1  0.00021600  0.15531300  0.72933600  1
  O  O62  1  0.47515300  0.16306400  0.61707300  1
  O  O63  1  0.50000000  0.17164000  0.93115000  1
  O  O64  1  0.00000000  0.17164000  0.81736000  1
  O  O65  1  0.50773300  0.15774200  0.70365600  1
  O  O66  1  0.99853600  0.20200100  0.60061600  1
  O  O67  1  1.00000000  0.50000000  0.95668000  1
  O  O68  1  0.50000000  0.50000000  0.84289000  1
  O  O69  1  0.00049200  0.50002000  0.72830400  1
  O  O70  1  0.50443000  0.48243000  0.62238800  1
  O  O71  1  0.50000000  0.50000000  0.92952000  1
  O  O72  1  1.00000000  0.50000000  0.81573000  1
  O  O73  1  0.50413600  0.50932500  0.70630400  1
  O  O74  1  0.99010000  0.48780300  0.59158700  1
  O  O75  1  0.69034000  1.00000000  0.00000000  1
  O  O76  1  0.19034000  0.00000000  0.88621000  1
  O  O77  1  0.69034000  1.00000000  0.77241000  1
  O  O78  1  0.19239500  0.98127800  0.65709000  1
  O  O79  1  0.67592800  0.05491100  0.54701100  1
  O  O80  1  0.30966000  0.00000000  0.00000000  1
  O  O81  1  0.80966000  1.00000000  0.88621000  1
  O  O82  1  0.30966000  0.00000000  0.77241000  1
  O  O83  1  0.80995700  0.99512300  0.64576600  1
  O  O84  1  0.29590000  0.07732900  0.53772000  1
