# generated using pymatgen
data_MgTiMnVZnCrFeCoCuNiSb20ClO54
_symmetry_space_group_name_H-M   'P 1'
_cell_length_a   6.65475900
_cell_length_b   9.60539300
_cell_length_c   28.83322200
_cell_angle_alpha   90.27859900
_cell_angle_beta   89.92483200
_cell_angle_gamma   89.84109500
_symmetry_Int_Tables_number   1
_chemical_formula_structural   MgTiMnVZnCrFeCoCuNiSb20ClO54
_chemical_formula_sum
'Mg1 Ti1 Mn1 V1 Zn1 Cr1 Fe1 Co1 Cu1 Ni1 Sb20 Cl1 O54'
_cell_volume   1843.03448202
_cell_formula_units_Z   1
loop_
 _symmetry_equiv_pos_site_id
 _symmetry_equiv_pos_as_xyz
  1  'x, y, z'
loop_
 _atom_site_type_symbol
 _atom_site_label
 _atom_site_symmetry_multiplicity
 _atom_site_fract_x
 _atom_site_fract_y
 _atom_site_fract_z
 _atom_site_occupancy
  Mg  Mg0  1  1.00000000  1.00000000  0.77241000  1
  Ti  Ti1  1  1.00000000  0.33232000  0.00000000  1
  Mn  Mn2  1  0.50184700  0.99843800  0.65636100  1
  V  V3  1  0.99275200  0.61944600  0.56478500  1
  Zn  Zn4  1  0.50000000  0.66768000  0.88621000  1
  Cr  Cr5  1  0.50535000  0.49942800  0.54625500  1
  Fe  Fe6  1  1.00000000  0.66768000  0.77241000  1
  Co  Co7  1  0.50000000  0.16768000  0.77241000  1
  Cu  Cu8  1  0.00000000  0.66768000  0.00000000  1
  Ni  Ni9  1  0.00168200  0.49289700  0.66269400  1
  Sb  Sb10  1  0.00000000  0.00000000  0.00000000  1
  Sb  Sb11  1  0.50000000  1.00000000  0.88621000  1
  Sb  Sb12  1  0.99088300  0.99791400  0.56954000  1
  Sb  Sb13  1  0.50000000  0.50000000  0.00000000  1
  Sb  Sb14  1  1.00000000  0.50000000  0.88621000  1
  Sb  Sb15  1  0.50000000  0.50000000  0.77241000  1
  Sb  Sb16  1  0.50000000  0.33232000  0.88621000  1
  Sb  Sb17  1  0.00000000  0.33232000  0.77241000  1
  Sb  Sb18  1  0.50278600  0.32088000  0.65735600  1
  Sb  Sb19  1  0.00992600  0.35173000  0.52787500  1
  Sb  Sb20  1  0.50000000  0.83232000  0.00000000  1
  Sb  Sb21  1  1.00000000  0.83232000  0.88621000  1
  Sb  Sb22  1  0.50000000  0.83232000  0.77241000  1
  Sb  Sb23  1  0.00198900  0.82239900  0.66419200  1
  Sb  Sb24  1  0.46560100  0.80970400  0.53841500  1
  Sb  Sb25  1  0.50000000  0.16768000  0.00000000  1
  Sb  Sb26  1  0.00000000  0.16768000  0.88621000  1
  Sb  Sb27  1  0.00626700  0.17200500  0.66189600  1
  Sb  Sb28  1  0.50672800  0.18331400  0.53781200  1
  Sb  Sb29  1  0.50207700  0.66628100  0.65658700  1
  Cl  Cl30  1  0.49925300  0.52201200  0.46842100  1
  O  O31  1  0.00000000  0.17164000  0.95506000  1
  O  O32  1  0.50000000  0.17164000  0.84126000  1
  O  O33  1  0.99980400  0.15525700  0.72934800  1
  O  O34  1  0.50077300  0.16655400  0.60832600  1
  O  O35  1  0.50000000  0.17164000  0.93115000  1
  O  O36  1  0.00000000  0.17164000  0.81736000  1
  O  O37  1  0.50131600  0.15995000  0.69981600  1
  O  O38  1  0.01596800  0.19270100  0.58935900  1
  O  O39  1  0.30253000  0.67164000  0.00000000  1
  O  O40  1  0.80253000  0.67164000  0.88621000  1
  O  O41  1  0.30253000  0.67164000  0.77241000  1
  O  O42  1  0.80592500  0.66193300  0.65929600  1
  O  O43  1  0.27587400  0.64491400  0.55030200  1
  O  O44  1  0.69747000  0.67164000  0.00000000  1
  O  O45  1  0.19747000  0.67164000  0.88621000  1
  O  O46  1  0.69747000  0.67164000  0.77241000  1
  O  O47  1  0.19771400  0.66237500  0.65890400  1
  O  O48  1  0.73752900  0.63170800  0.54907000  1
  O  O49  1  0.30253000  0.32836000  0.00000000  1
  O  O50  1  0.80253000  0.32836000  0.88621000  1
  O  O51  1  0.30253000  0.32836000  0.77241000  1
  O  O52  1  0.80582700  0.32880200  0.66162500  1
  O  O53  1  0.31400100  0.35323600  0.54763900  1
  O  O54  1  0.69747000  0.32836000  0.00000000  1
  O  O55  1  0.19747000  0.32836000  0.88621000  1
  O  O56  1  0.69747000  0.32836000  0.77241000  1
  O  O57  1  0.20081500  0.33064000  0.66300300  1
  O  O58  1  0.69577100  0.34659600  0.54607000  1
  O  O59  1  0.00000000  0.82836000  0.95506000  1
  O  O60  1  0.50000000  0.82836000  0.84126000  1
  O  O61  1  0.99978400  0.84468700  0.72933600  1
  O  O62  1  0.50196600  0.82381900  0.60915200  1
  O  O63  1  0.50000000  0.82836000  0.93115000  1
  O  O64  1  0.00000000  0.82836000  0.81736000  1
  O  O65  1  0.50124500  0.82735500  0.70016700  1
  O  O66  1  0.99393400  0.80422100  0.59257700  1
  O  O67  1  1.00000000  0.50000000  0.95668000  1
  O  O68  1  0.50000000  0.50000000  0.84289000  1
  O  O69  1  0.99950800  0.49998000  0.72830400  1
  O  O70  1  0.50541600  0.49514100  0.61543500  1
  O  O71  1  0.50000000  0.50000000  0.92952000  1
  O  O72  1  1.00000000  0.50000000  0.81573000  1
  O  O73  1  0.50267200  0.49717800  0.70181800  1
  O  O74  1  0.00536000  0.47122900  0.59551000  1
  O  O75  1  0.30966000  1.00000000  0.00000000  1
  O  O76  1  0.80966000  1.00000000  0.88621000  1
  O  O77  1  0.30966000  1.00000000  0.77241000  1
  O  O78  1  0.81697500  0.99786000  0.64622600  1
  O  O79  1  0.24486200  0.97060600  0.53721300  1
  O  O80  1  0.69034000  0.00000000  0.00000000  1
  O  O81  1  0.19034000  1.00000000  0.88621000  1
  O  O82  1  0.69034000  0.00000000  0.77241000  1
  O  O83  1  0.19014200  0.99455000  0.64861800  1
  O  O84  1  0.74301700  0.00881200  0.53657100  1
