# generated using pymatgen
data_MgTiMnVZnCrFeCoCuNiSb20ClO54
_symmetry_space_group_name_H-M   'P 1'
_cell_length_a   6.72622300
_cell_length_b   9.37556100
_cell_length_c   29.27431200
_cell_angle_alpha   89.99062300
_cell_angle_beta   89.93965200
_cell_angle_gamma   89.99482600
_symmetry_Int_Tables_number   1
_chemical_formula_structural   MgTiMnVZnCrFeCoCuNiSb20ClO54
_chemical_formula_sum
'Mg1 Ti1 Mn1 V1 Zn1 Cr1 Fe1 Co1 Cu1 Ni1 Sb20 Cl1 O54'
_cell_volume   1846.09894544
_cell_formula_units_Z   1
loop_
 _symmetry_equiv_pos_site_id
 _symmetry_equiv_pos_as_xyz
  1  'x, y, z'
loop_
 _atom_site_type_symbol
 _atom_site_label
 _atom_site_symmetry_multiplicity
 _atom_site_fract_x
 _atom_site_fract_y
 _atom_site_fract_z
 _atom_site_occupancy
  Mg  Mg0  1  0.49885700  0.00694300  0.33564300  1
  Ti  Ti1  1  1.00000000  0.66768000  0.22759000  1
  Mn  Mn2  1  1.00000000  0.33232000  0.22759000  1
  V  V3  1  0.50000000  0.83232000  0.22759000  1
  Zn  Zn4  1  1.00000000  0.50000000  0.11379000  1
  Cr  Cr5  1  0.50248700  0.50236900  0.43867700  1
  Fe  Fe6  1  0.49890200  0.66417400  0.33327900  1
  Co  Co7  1  0.50000000  0.83232000  1.00000000  1
  Cu  Cu8  1  0.50000000  0.00000000  0.11379000  1
  Ni  Ni9  1  0.49886400  0.33027300  0.33809100  1
  Sb  Sb10  1  0.00000000  0.00000000  0.00000000  1
  Sb  Sb11  1  1.00000000  0.00000000  0.22759000  1
  Sb  Sb12  1  0.00069700  0.98809600  0.46370800  1
  Sb  Sb13  1  0.50000000  0.50000000  0.00000000  1
  Sb  Sb14  1  0.50000000  0.50000000  0.22759000  1
  Sb  Sb15  1  0.99967600  0.49883500  0.33892600  1
  Sb  Sb16  1  1.00000000  0.66768000  0.00000000  1
  Sb  Sb17  1  0.50000000  0.66768000  0.11379000  1
  Sb  Sb18  1  0.99807600  0.66577400  0.46109300  1
  Sb  Sb19  1  0.50000000  0.16768000  0.00000000  1
  Sb  Sb20  1  1.00000000  0.16768000  0.11379000  1
  Sb  Sb21  1  0.50000000  0.16768000  0.22759000  1
  Sb  Sb22  1  0.99926000  0.16539800  0.34146600  1
  Sb  Sb23  1  0.50424400  0.18519400  0.44853900  1
  Sb  Sb24  1  1.00000000  0.83232000  0.11379000  1
  Sb  Sb25  1  0.99969200  0.83524400  0.34136300  1
  Sb  Sb26  1  0.49897700  0.82278600  0.43725600  1
  Sb  Sb27  1  1.00000000  0.33232000  0.00000000  1
  Sb  Sb28  1  0.50000000  0.33232000  0.11379000  1
  Sb  Sb29  1  0.99952100  0.34145100  0.45651200  1
  Cl  Cl30  1  0.52839200  0.49684000  0.51881800  1
  O  O31  1  1.00000000  0.82836000  0.04494000  1
  O  O32  1  0.50000000  0.82836000  0.15874000  1
  O  O33  1  0.99980400  0.84474300  0.27065200  1
  O  O34  1  0.49454000  0.82785400  0.37255900  1
  O  O35  1  0.50000000  0.82836000  0.06885000  1
  O  O36  1  1.00000000  0.82836000  0.18264000  1
  O  O37  1  0.50053700  0.82110000  0.28700600  1
  O  O38  1  0.00478800  0.83027500  0.41019500  1
  O  O39  1  0.30253000  0.32836000  1.00000000  1
  O  O40  1  0.80253000  0.32836000  0.11379000  1
  O  O41  1  0.30253000  0.32836000  0.22759000  1
  O  O42  1  0.80656800  0.33097500  0.33920500  1
  O  O43  1  0.30655200  0.35921300  0.44241000  1
  O  O44  1  0.69747000  0.32836000  1.00000000  1
  O  O45  1  0.19747000  0.32836000  0.11379000  1
  O  O46  1  0.69747000  0.32836000  0.22759000  1
  O  O47  1  0.19217200  0.33039800  0.33891300  1
  O  O48  1  0.69903600  0.35813000  0.43751700  1
  O  O49  1  0.30253000  0.67164000  1.00000000  1
  O  O50  1  0.80253000  0.67164000  0.11379000  1
  O  O51  1  0.30253000  0.67164000  0.22759000  1
  O  O52  1  0.80781900  0.67013300  0.33744300  1
  O  O53  1  0.31232200  0.66040900  0.44655600  1
  O  O54  1  0.69747000  0.67164000  1.00000000  1
  O  O55  1  0.19747000  0.67164000  0.11379000  1
  O  O56  1  0.69747000  0.67164000  0.22759000  1
  O  O57  1  0.19030000  0.66988000  0.33643100  1
  O  O58  1  0.69144800  0.66134300  0.44224600  1
  O  O59  1  1.00000000  0.17164000  0.04494000  1
  O  O60  1  0.50000000  0.17164000  0.15874000  1
  O  O61  1  0.99978400  0.15531300  0.27066400  1
  O  O62  1  0.49756100  0.16679200  0.38225800  1
  O  O63  1  0.50000000  0.17164000  0.06885000  1
  O  O64  1  1.00000000  0.17164000  0.18264000  1
  O  O65  1  0.50005800  0.17070400  0.29379800  1
  O  O66  1  0.00282300  0.16143500  0.41149400  1
  O  O67  1  1.00000000  0.50000000  0.04332000  1
  O  O68  1  0.50000000  0.50000000  0.15711000  1
  O  O69  1  0.99950800  0.50002000  0.27169600  1
  O  O70  1  0.49522200  0.50639800  0.37734200  1
  O  O71  1  0.50000000  0.50000000  0.07048000  1
  O  O72  1  1.00000000  0.50000000  0.18427000  1
  O  O73  1  0.49997600  0.49901200  0.29539400  1
  O  O74  1  0.00705700  0.50852300  0.40750700  1
  O  O75  1  0.30966000  1.00000000  1.00000000  1
  O  O76  1  0.80966000  0.00000000  0.11379000  1
  O  O77  1  0.30966000  1.00000000  0.22759000  1
  O  O78  1  0.80721300  0.99878600  0.34010500  1
  O  O79  1  0.30976200  0.97494300  0.45437000  1
  O  O80  1  0.69034000  0.00000000  1.00000000  1
  O  O81  1  0.19034000  1.00000000  0.11379000  1
  O  O82  1  0.69034000  0.00000000  0.22759000  1
  O  O83  1  0.19089100  0.99905100  0.33952400  1
  O  O84  1  0.69228300  0.97333800  0.45233100  1
