# generated using pymatgen
data_MgTiMnVZnCrFeCoCuNiSb20ClO54
_symmetry_space_group_name_H-M   'P 1'
_cell_length_a   6.74263300
_cell_length_b   9.56970800
_cell_length_c   29.24103100
_cell_angle_alpha   89.75279300
_cell_angle_beta   89.10340300
_cell_angle_gamma   89.89346400
_symmetry_Int_Tables_number   1
_chemical_formula_structural   MgTiMnVZnCrFeCoCuNiSb20ClO54
_chemical_formula_sum
'Mg1 Ti1 Mn1 V1 Zn1 Cr1 Fe1 Co1 Cu1 Ni1 Sb20 Cl1 O54'
_cell_volume   1886.52677279
_cell_formula_units_Z   1
loop_
 _symmetry_equiv_pos_site_id
 _symmetry_equiv_pos_as_xyz
  1  'x, y, z'
loop_
 _atom_site_type_symbol
 _atom_site_label
 _atom_site_symmetry_multiplicity
 _atom_site_fract_x
 _atom_site_fract_y
 _atom_site_fract_z
 _atom_site_occupancy
  Mg  Mg0  1  0.49705600  0.83050100  0.54841600  1
  Ti  Ti1  1  0.00451100  0.85840300  0.66024000  1
  Mn  Mn2  1  0.00000000  0.16768000  0.88621000  1
  V  V3  1  0.00000000  0.33232000  0.77241000  1
  Zn  Zn4  1  0.02325900  0.99997100  0.56090600  1
  Cr  Cr5  1  0.45898200  0.52069500  0.54228400  1
  Fe  Fe6  1  0.50000000  0.33232000  0.88621000  1
  Co  Co7  1  0.00000000  0.00000000  0.77241000  1
  Cu  Cu8  1  0.87366200  0.69554800  0.57147500  1
  Ni  Ni9  1  0.01186900  0.16729600  0.66326300  1
  Sb  Sb10  1  0.00000000  0.00000000  0.00000000  1
  Sb  Sb11  1  0.50000000  0.00000000  0.88621000  1
  Sb  Sb12  1  0.50299500  0.00021500  0.65820700  1
  Sb  Sb13  1  0.50000000  0.50000000  0.00000000  1
  Sb  Sb14  1  0.00000000  0.50000000  0.88621000  1
  Sb  Sb15  1  0.50000000  0.50000000  0.77241000  1
  Sb  Sb16  1  0.01588700  0.49901100  0.65939200  1
  Sb  Sb17  1  1.00000000  0.33232000  0.00000000  1
  Sb  Sb18  1  0.52477200  0.33494000  0.64304000  1
  Sb  Sb19  1  0.97275900  0.33492100  0.55381500  1
  Sb  Sb20  1  0.50000000  0.83232000  0.00000000  1
  Sb  Sb21  1  0.00000000  0.83232000  0.88621000  1
  Sb  Sb22  1  0.50000000  0.83232000  0.77241000  1
  Sb  Sb23  1  0.50000000  0.16768000  0.00000000  1
  Sb  Sb24  1  0.50000000  0.16768000  0.77241000  1
  Sb  Sb25  1  0.51948700  0.14453300  0.53554500  1
  Sb  Sb26  1  0.00000000  0.66768000  0.00000000  1
  Sb  Sb27  1  0.50000000  0.66768000  0.88621000  1
  Sb  Sb28  1  0.00000000  0.66768000  0.77241000  1
  Sb  Sb29  1  0.50502200  0.66677200  0.65884300  1
  Cl  Cl30  1  0.51736700  0.45340000  0.47161200  1
  O  O31  1  0.00000000  0.17164000  0.95506000  1
  O  O32  1  0.50000000  0.17164000  0.84126000  1
  O  O33  1  0.99980400  0.15525700  0.72934800  1
  O  O34  1  0.48999900  0.14647400  0.61055300  1
  O  O35  1  0.50000000  0.17164000  0.93115000  1
  O  O36  1  0.00000000  0.17164000  0.81736000  1
  O  O37  1  0.50661200  0.17073100  0.69974000  1
  O  O38  1  0.02072600  0.17706000  0.59527400  1
  O  O39  1  0.30253000  0.67164000  0.00000000  1
  O  O40  1  0.80253000  0.67164000  0.88621000  1
  O  O41  1  0.30253000  0.67164000  0.77241000  1
  O  O42  1  0.81159400  0.66651200  0.66292200  1
  O  O43  1  0.29206200  0.64493300  0.54130300  1
  O  O44  1  0.69747000  0.67164000  0.00000000  1
  O  O45  1  0.19747000  0.67164000  0.88621000  1
  O  O46  1  0.69747000  0.67164000  0.77241000  1
  O  O47  1  0.20065500  0.66785100  0.66527400  1
  O  O48  1  0.66148200  0.63970900  0.53957700  1
  O  O49  1  0.30253000  0.32836000  0.00000000  1
  O  O50  1  0.80253000  0.32836000  0.88621000  1
  O  O51  1  0.30253000  0.32836000  0.77241000  1
  O  O52  1  0.81910900  0.33677700  0.66249600  1
  O  O53  1  0.32063400  0.37292300  0.55415700  1
  O  O54  1  0.69747000  0.32836000  0.00000000  1
  O  O55  1  0.19747000  0.32836000  0.88621000  1
  O  O56  1  0.69747000  0.32836000  0.77241000  1
  O  O57  1  0.21458700  0.33873700  0.65991700  1
  O  O58  1  0.67406600  0.33790700  0.57041800  1
  O  O59  1  0.00000000  0.82836000  0.95506000  1
  O  O60  1  0.50000000  0.82836000  0.84126000  1
  O  O61  1  0.99978400  0.84468700  0.72933600  1
  O  O62  1  0.50493200  0.83026700  0.61704800  1
  O  O63  1  0.50000000  0.82836000  0.93115000  1
  O  O64  1  0.00000000  0.82836000  0.81736000  1
  O  O65  1  0.50523100  0.83034300  0.70379800  1
  O  O66  1  0.02533800  0.82954500  0.59943200  1
  O  O67  1  0.00000000  0.50000000  0.95668000  1
  O  O68  1  0.50000000  0.50000000  0.84289000  1
  O  O69  1  0.99950800  0.49998000  0.72830400  1
  O  O70  1  0.49297200  0.52667000  0.61131800  1
  O  O71  1  0.50000000  0.50000000  0.92952000  1
  O  O72  1  0.00000000  0.50000000  0.81573000  1
  O  O73  1  0.51197400  0.49907700  0.70045000  1
  O  O74  1  0.99501900  0.50826600  0.59294400  1
  O  O75  1  0.30966000  0.00000000  0.00000000  1
  O  O76  1  0.80966000  0.00000000  0.88621000  1
  O  O77  1  0.30966000  0.00000000  0.77241000  1
  O  O78  1  0.79754000  0.99420300  0.66054200  1
  O  O79  1  0.30947500  0.99111100  0.53992900  1
  O  O80  1  0.69034000  0.00000000  0.00000000  1
  O  O81  1  0.19034000  0.00000000  0.88621000  1
  O  O82  1  0.69034000  0.00000000  0.77241000  1
  O  O83  1  0.20834300  0.99316500  0.66416000  1
  O  O84  1  0.72045900  0.98945000  0.54317500  1
