# generated using pymatgen
data_MgTiMnVZnCrFeCoCuNiSb20ClO54
_symmetry_space_group_name_H-M   'P 1'
_cell_length_a   6.69377000
_cell_length_b   9.59110800
_cell_length_c   28.79586400
_cell_angle_alpha   90.42952300
_cell_angle_beta   89.93842100
_cell_angle_gamma   89.99321200
_symmetry_Int_Tables_number   1
_chemical_formula_structural   MgTiMnVZnCrFeCoCuNiSb20ClO54
_chemical_formula_sum
'Mg1 Ti1 Mn1 V1 Zn1 Cr1 Fe1 Co1 Cu1 Ni1 Sb20 Cl1 O54'
_cell_volume   1848.66076068
_cell_formula_units_Z   1
loop_
 _symmetry_equiv_pos_site_id
 _symmetry_equiv_pos_as_xyz
  1  'x, y, z'
loop_
 _atom_site_type_symbol
 _atom_site_label
 _atom_site_symmetry_multiplicity
 _atom_site_fract_x
 _atom_site_fract_y
 _atom_site_fract_z
 _atom_site_occupancy
  Mg  Mg0  1  0.99985400  0.66221100  0.44744800  1
  Ti  Ti1  1  0.99834500  0.33051900  0.45480300  1
  Mn  Mn2  1  0.00000000  0.00000000  0.22759000  1
  V  V3  1  0.00000000  0.83232000  0.11379000  1
  Zn  Zn4  1  0.00000000  0.66768000  0.22759000  1
  Cr  Cr5  1  0.49892900  0.47049200  0.46680800  1
  Fe  Fe6  1  0.50000000  0.83232000  0.00000000  1
  Co  Co7  1  0.49782900  0.18328800  0.46202000  1
  Cu  Cu8  1  0.50000000  1.00000000  0.11379000  1
  Ni  Ni9  1  0.50000000  0.66768000  0.11379000  1
  Sb  Sb10  1  0.00000000  0.00000000  0.00000000  1
  Sb  Sb11  1  0.49872400  0.00485700  0.38424100  1
  Sb  Sb12  1  0.99745600  0.00965400  0.45505800  1
  Sb  Sb13  1  0.50000000  0.50000000  0.00000000  1
  Sb  Sb14  1  0.00000000  0.50000000  0.11379000  1
  Sb  Sb15  1  0.50000000  0.50000000  0.22759000  1
  Sb  Sb16  1  0.99345800  0.50376700  0.34253900  1
  Sb  Sb17  1  0.00000000  0.33232000  0.00000000  1
  Sb  Sb18  1  0.50000000  0.33232000  0.11379000  1
  Sb  Sb19  1  0.00000000  0.33232000  0.22759000  1
  Sb  Sb20  1  0.49656200  0.33583100  0.34211800  1
  Sb  Sb21  1  0.50000000  0.83232000  0.22759000  1
  Sb  Sb22  1  0.99970900  0.84850300  0.33842000  1
  Sb  Sb23  1  0.49860300  0.76961700  0.47697900  1
  Sb  Sb24  1  0.50000000  0.16768000  0.00000000  1
  Sb  Sb25  1  0.00000000  0.16768000  0.11379000  1
  Sb  Sb26  1  0.50000000  0.16768000  0.22759000  1
  Sb  Sb27  1  0.99754000  0.16436100  0.34001300  1
  Sb  Sb28  1  0.00000000  0.66768000  0.00000000  1
  Sb  Sb29  1  0.49745000  0.67763100  0.34612500  1
  Cl  Cl30  1  0.50051800  0.49456200  0.54391500  1
  O  O31  1  1.00000000  0.17164000  0.04494000  1
  O  O32  1  0.50000000  0.17164000  0.15874000  1
  O  O33  1  0.00019600  0.15525700  0.27065200  1
  O  O34  1  0.50265000  0.21893400  0.39521200  1
  O  O35  1  0.50000000  0.17164000  0.06885000  1
  O  O36  1  0.00000000  0.17164000  0.18264000  1
  O  O37  1  0.49523800  0.18259900  0.29663000  1
  O  O38  1  0.99645600  0.18042200  0.41067600  1
  O  O39  1  0.69747000  0.67164000  0.00000000  1
  O  O40  1  0.19747000  0.67164000  0.11379000  1
  O  O41  1  0.69747000  0.67164000  0.22759000  1
  O  O42  1  0.19439600  0.68730500  0.34650800  1
  O  O43  1  0.71049200  0.62910000  0.46540600  1
  O  O44  1  0.30253000  0.67164000  0.00000000  1
  O  O45  1  0.80253000  0.67164000  0.11379000  1
  O  O46  1  0.30253000  0.67164000  0.22759000  1
  O  O47  1  0.79905100  0.69130600  0.34480800  1
  O  O48  1  0.28797700  0.62820500  0.46526800  1
  O  O49  1  0.69747000  0.32836000  0.00000000  1
  O  O50  1  0.19747000  0.32836000  0.11379000  1
  O  O51  1  0.69747000  0.32836000  0.22759000  1
  O  O52  1  0.19066700  0.32488900  0.33903400  1
  O  O53  1  0.71584400  0.32167400  0.47046200  1
  O  O54  1  0.30253000  0.32836000  0.00000000  1
  O  O55  1  0.80253000  0.32836000  0.11379000  1
  O  O56  1  0.30253000  0.32836000  0.22759000  1
  O  O57  1  0.80203100  0.32291300  0.33770300  1
  O  O58  1  0.28053400  0.32192900  0.47023100  1
  O  O59  1  0.00000000  0.82836000  0.04494000  1
  O  O60  1  0.50000000  0.82836000  0.15874000  1
  O  O61  1  0.00021600  0.84468700  0.27066400  1
  O  O62  1  0.49720400  0.78962100  0.40466300  1
  O  O63  1  0.50000000  0.82836000  0.06885000  1
  O  O64  1  0.00000000  0.82836000  0.18264000  1
  O  O65  1  0.49455700  0.82611400  0.29939000  1
  O  O66  1  0.99710000  0.84445100  0.41218900  1
  O  O67  1  0.00000000  0.50000000  0.04332000  1
  O  O68  1  0.50000000  0.50000000  0.15711000  1
  O  O69  1  0.00049200  0.49998000  0.27169600  1
  O  O70  1  0.49981800  0.50140900  0.38620100  1
  O  O71  1  0.50000000  0.50000000  0.07048000  1
  O  O72  1  0.00000000  0.50000000  0.18427000  1
  O  O73  1  0.49818300  0.50501300  0.29969400  1
  O  O74  1  0.99817000  0.47719900  0.42004900  1
  O  O75  1  0.69034000  0.00000000  0.00000000  1
  O  O76  1  0.19034000  1.00000000  0.11379000  1
  O  O77  1  0.69034000  0.00000000  0.22759000  1
  O  O78  1  0.19190100  0.00901400  0.34448000  1
  O  O79  1  0.68129300  0.03117900  0.44549800  1
  O  O80  1  0.30966000  0.00000000  0.00000000  1
  O  O81  1  0.80966000  1.00000000  0.11379000  1
  O  O82  1  0.30966000  0.00000000  0.22759000  1
  O  O83  1  0.80504000  0.00803800  0.34367200  1
  O  O84  1  0.31452500  0.03226400  0.44525700  1
