# generated using pymatgen
data_MgTiMnVZnCrFeCoCuNiSb20ClO54
_symmetry_space_group_name_H-M   'P 1'
_cell_length_a   6.62469900
_cell_length_b   9.72343600
_cell_length_c   29.54362500
_cell_angle_alpha   89.81406200
_cell_angle_beta   89.99529500
_cell_angle_gamma   89.98187200
_symmetry_Int_Tables_number   1
_chemical_formula_structural   MgTiMnVZnCrFeCoCuNiSb20ClO54
_chemical_formula_sum
'Mg1 Ti1 Mn1 V1 Zn1 Cr1 Fe1 Co1 Cu1 Ni1 Sb20 Cl1 O54'
_cell_volume   1903.03765876
_cell_formula_units_Z   1
loop_
 _symmetry_equiv_pos_site_id
 _symmetry_equiv_pos_as_xyz
  1  'x, y, z'
loop_
 _atom_site_type_symbol
 _atom_site_label
 _atom_site_symmetry_multiplicity
 _atom_site_fract_x
 _atom_site_fract_y
 _atom_site_fract_z
 _atom_site_occupancy
  Mg  Mg0  1  0.99841200  0.82493000  0.66425600  1
  Ti  Ti1  1  0.99955200  0.17034000  0.66649500  1
  Mn  Mn2  1  0.99858200  0.49834700  0.66121600  1
  V  V3  1  0.00000000  0.00000000  0.00000000  1
  Zn  Zn4  1  0.49837100  0.16994700  0.55034200  1
  Cr  Cr5  1  0.50184100  0.48838600  0.54824300  1
  Fe  Fe6  1  0.00000000  0.33232000  0.00000000  1
  Co  Co7  1  0.99994900  0.65976800  0.56376700  1
  Cu  Cu8  1  0.50000000  0.83232000  0.77241000  1
  Ni  Ni9  1  0.00000000  1.00000000  0.77241000  1
  Sb  Sb10  1  0.50000000  0.00000000  0.88621000  1
  Sb  Sb11  1  0.49943500  0.00022900  0.65891700  1
  Sb  Sb12  1  0.99778300  0.01031300  0.57004700  1
  Sb  Sb13  1  0.50000000  0.50000000  1.00000000  1
  Sb  Sb14  1  0.00000000  0.50000000  0.88621000  1
  Sb  Sb15  1  0.50000000  0.50000000  0.77241000  1
  Sb  Sb16  1  0.00000000  0.66768000  0.00000000  1
  Sb  Sb17  1  0.50000000  0.66768000  0.88621000  1
  Sb  Sb18  1  0.00000000  0.66768000  0.77241000  1
  Sb  Sb19  1  0.49848900  0.66474300  0.65813400  1
  Sb  Sb20  1  0.50000000  0.16768000  1.00000000  1
  Sb  Sb21  1  0.00000000  0.16768000  0.88621000  1
  Sb  Sb22  1  0.50000000  0.16768000  0.77241000  1
  Sb  Sb23  1  0.50000000  0.83232000  1.00000000  1
  Sb  Sb24  1  0.00000000  0.83232000  0.88621000  1
  Sb  Sb25  1  0.49945000  0.80139100  0.54126700  1
  Sb  Sb26  1  0.50000000  0.33232000  0.88621000  1
  Sb  Sb27  1  0.00000000  0.33232000  0.77241000  1
  Sb  Sb28  1  0.49874200  0.33479700  0.65671700  1
  Sb  Sb29  1  0.00258900  0.35498200  0.54858100  1
  Cl  Cl30  1  0.49751200  0.51419300  0.47369700  1
  O  O31  1  0.00000000  0.82836000  0.95506000  1
  O  O32  1  0.50000000  0.82836000  0.84126000  1
  O  O33  1  0.00019600  0.84474300  0.72934800  1
  O  O34  1  0.49958000  0.83278100  0.61249200  1
  O  O35  1  0.50000000  0.82836000  0.93115000  1
  O  O36  1  0.00000000  0.82836000  0.81736000  1
  O  O37  1  0.49990600  0.83281900  0.69989400  1
  O  O38  1  0.99619900  0.82894500  0.59578500  1
  O  O39  1  0.69747000  0.32836000  0.00000000  1
  O  O40  1  0.19747000  0.32836000  0.88621000  1
  O  O41  1  0.69747000  0.32836000  0.77241000  1
  O  O42  1  0.18836700  0.33615800  0.66403000  1
  O  O43  1  0.68313400  0.34645100  0.55274300  1
  O  O44  1  0.30253000  0.32836000  1.00000000  1
  O  O45  1  0.80253000  0.32836000  0.88621000  1
  O  O46  1  0.30253000  0.32836000  0.77241000  1
  O  O47  1  0.80913500  0.33673200  0.66437700  1
  O  O48  1  0.31502500  0.34290000  0.55229500  1
  O  O49  1  0.69747000  0.67164000  0.00000000  1
  O  O50  1  0.19747000  0.67164000  0.88621000  1
  O  O51  1  0.69747000  0.67164000  0.77241000  1
  O  O52  1  0.19305100  0.64978500  0.66202600  1
  O  O53  1  0.70748700  0.64705800  0.55233800  1
  O  O54  1  0.30253000  0.67164000  1.00000000  1
  O  O55  1  0.80253000  0.67164000  0.88621000  1
  O  O56  1  0.30253000  0.67164000  0.77241000  1
  O  O57  1  0.80396900  0.64903200  0.66237400  1
  O  O58  1  0.29271300  0.64651200  0.55290200  1
  O  O59  1  0.00000000  0.17164000  0.95506000  1
  O  O60  1  0.50000000  0.17164000  0.84126000  1
  O  O61  1  0.00021600  0.15531300  0.72933600  1
  O  O62  1  0.49996100  0.16785100  0.61755700  1
  O  O63  1  0.50000000  0.17164000  0.93115000  1
  O  O64  1  0.00000000  0.17164000  0.81736000  1
  O  O65  1  0.49958100  0.17371300  0.70327300  1
  O  O66  1  0.99753200  0.19742400  0.59511300  1
  O  O67  1  0.00000000  0.50000000  0.95668000  1
  O  O68  1  0.50000000  0.50000000  0.84289000  1
  O  O69  1  0.00049200  0.50002000  0.72830400  1
  O  O70  1  0.49858000  0.49881200  0.61570300  1
  O  O71  1  0.50000000  0.50000000  0.92952000  1
  O  O72  1  0.00000000  0.50000000  0.81573000  1
  O  O73  1  0.49816700  0.49483400  0.70307800  1
  O  O74  1  0.99854800  0.49346500  0.59857900  1
  O  O75  1  0.69034000  1.00000000  0.00000000  1
  O  O76  1  0.19034000  0.00000000  0.88621000  1
  O  O77  1  0.69034000  1.00000000  0.77241000  1
  O  O78  1  0.19216700  0.01859400  0.65465800  1
  O  O79  1  0.73191700  0.01648900  0.54222600  1
  O  O80  1  0.30966000  0.00000000  1.00000000  1
  O  O81  1  0.80966000  1.00000000  0.88621000  1
  O  O82  1  0.30966000  0.00000000  0.77241000  1
  O  O83  1  0.80661400  0.01838700  0.65464400  1
  O  O84  1  0.26375500  0.01534700  0.54245400  1
