# generated using pymatgen
data_MgTiMnVZnCrFeCoCuNiSb20ClO54
_symmetry_space_group_name_H-M   'P 1'
_cell_length_a   6.72603000
_cell_length_b   9.50340700
_cell_length_c   29.38744300
_cell_angle_alpha   90.01064100
_cell_angle_beta   89.96441700
_cell_angle_gamma   89.95485500
_symmetry_Int_Tables_number   1
_chemical_formula_structural   MgTiMnVZnCrFeCoCuNiSb20ClO54
_chemical_formula_sum
'Mg1 Ti1 Mn1 V1 Zn1 Cr1 Fe1 Co1 Cu1 Ni1 Sb20 Cl1 O54'
_cell_volume   1878.45027330
_cell_formula_units_Z   1
loop_
 _symmetry_equiv_pos_site_id
 _symmetry_equiv_pos_as_xyz
  1  'x, y, z'
loop_
 _atom_site_type_symbol
 _atom_site_label
 _atom_site_symmetry_multiplicity
 _atom_site_fract_x
 _atom_site_fract_y
 _atom_site_fract_z
 _atom_site_occupancy
  Mg  Mg0  1  0.99696700  0.65999100  0.43643000  1
  Ti  Ti1  1  0.49999900  0.00821300  0.33923200  1
  Mn  Mn2  1  0.50000000  0.83232000  0.00000000  1
  V  V3  1  0.99973200  0.16175300  0.33454600  1
  Zn  Zn4  1  0.49219900  0.17530100  0.44748600  1
  Cr  Cr5  1  0.50550100  0.50364900  0.45204100  1
  Fe  Fe6  1  0.50000000  0.16768000  0.22759000  1
  Co  Co7  1  1.00000000  0.33232000  0.22759000  1
  Cu  Cu8  1  1.00000000  0.66768000  0.22759000  1
  Ni  Ni9  1  0.50000000  0.33232000  0.11379000  1
  Sb  Sb10  1  0.00000000  0.00000000  0.00000000  1
  Sb  Sb11  1  0.50000000  0.00000000  0.11379000  1
  Sb  Sb12  1  0.00000000  0.00000000  0.22759000  1
  Sb  Sb13  1  0.99810700  0.01131200  0.45391400  1
  Sb  Sb14  1  0.50000000  0.50000000  0.00000000  1
  Sb  Sb15  1  1.00000000  0.50000000  0.11379000  1
  Sb  Sb16  1  0.50000000  0.50000000  0.22759000  1
  Sb  Sb17  1  0.00088700  0.48972000  0.33619000  1
  Sb  Sb18  1  0.00000000  0.33232000  0.00000000  1
  Sb  Sb19  1  0.49996300  0.32411400  0.33908900  1
  Sb  Sb20  1  0.01436900  0.33251000  0.45125900  1
  Sb  Sb21  1  1.00000000  0.83232000  0.11379000  1
  Sb  Sb22  1  0.50000000  0.83232000  0.22759000  1
  Sb  Sb23  1  0.00027700  0.84683700  0.33940100  1
  Sb  Sb24  1  0.50141900  0.83853700  0.45630700  1
  Sb  Sb25  1  0.50000000  0.16768000  0.00000000  1
  Sb  Sb26  1  1.00000000  0.16768000  0.11379000  1
  Sb  Sb27  1  0.00000000  0.66768000  0.00000000  1
  Sb  Sb28  1  0.50000000  0.66768000  0.11379000  1
  Sb  Sb29  1  0.50041200  0.67178600  0.34377100  1
  Cl  Cl30  1  0.50291300  0.50753000  0.52768000  1
  O  O31  1  0.00000000  0.17164000  0.04494000  1
  O  O32  1  0.50000000  0.17164000  0.15874000  1
  O  O33  1  0.00019600  0.15525700  0.27065200  1
  O  O34  1  0.50368800  0.15816400  0.38034500  1
  O  O35  1  0.50000000  0.17164000  0.06885000  1
  O  O36  1  0.00000000  0.17164000  0.18264000  1
  O  O37  1  0.49959400  0.15750500  0.29541900  1
  O  O38  1  0.99846200  0.16756200  0.40488900  1
  O  O39  1  0.69747000  0.67164000  0.00000000  1
  O  O40  1  0.19747000  0.67164000  0.11379000  1
  O  O41  1  0.69747000  0.67164000  0.22759000  1
  O  O42  1  0.19026300  0.67269300  0.34224300  1
  O  O43  1  0.69764600  0.64249100  0.44795700  1
  O  O44  1  0.30253000  0.67164000  0.00000000  1
  O  O45  1  0.80253000  0.67164000  0.11379000  1
  O  O46  1  0.30253000  0.67164000  0.22759000  1
  O  O47  1  0.81039800  0.67166500  0.34217900  1
  O  O48  1  0.30235200  0.62656400  0.44842800  1
  O  O49  1  0.69747000  0.32836000  0.00000000  1
  O  O50  1  0.19747000  0.32836000  0.11379000  1
  O  O51  1  0.69747000  0.32836000  0.22759000  1
  O  O52  1  0.19228000  0.32055100  0.33773600  1
  O  O53  1  0.66737300  0.35887800  0.44640500  1
  O  O54  1  0.30253000  0.32836000  0.00000000  1
  O  O55  1  0.80253000  0.32836000  0.11379000  1
  O  O56  1  0.30253000  0.32836000  0.22759000  1
  O  O57  1  0.80712200  0.32222000  0.33737400  1
  O  O58  1  0.30892200  0.33944300  0.44873200  1
  O  O59  1  1.00000000  0.82836000  0.04494000  1
  O  O60  1  0.50000000  0.82836000  0.15874000  1
  O  O61  1  0.00021600  0.84468700  0.27066400  1
  O  O62  1  0.49905100  0.84517000  0.38452900  1
  O  O63  1  0.50000000  0.82836000  0.06885000  1
  O  O64  1  1.00000000  0.82836000  0.18264000  1
  O  O65  1  0.50068800  0.83707300  0.29757400  1
  O  O66  1  0.99769400  0.84812700  0.40918300  1
  O  O67  1  0.00000000  0.50000000  0.04332000  1
  O  O68  1  0.50000000  0.50000000  0.15711000  1
  O  O69  1  0.00049200  0.49998000  0.27169600  1
  O  O70  1  0.49287500  0.49429000  0.38175700  1
  O  O71  1  0.50000000  0.50000000  0.07048000  1
  O  O72  1  1.00000000  0.50000000  0.18427000  1
  O  O73  1  0.49995600  0.50258200  0.29741400  1
  O  O74  1  0.99637400  0.48340500  0.40362000  1
  O  O75  1  0.69034000  0.00000000  0.00000000  1
  O  O76  1  0.19034000  0.00000000  0.11379000  1
  O  O77  1  0.69034000  0.00000000  0.22759000  1
  O  O78  1  0.19502000  0.00836200  0.33883500  1
  O  O79  1  0.68611500  0.00888600  0.45347300  1
  O  O80  1  0.30966000  0.00000000  0.00000000  1
  O  O81  1  0.80966000  0.00000000  0.11379000  1
  O  O82  1  0.30966000  0.00000000  0.22759000  1
  O  O83  1  0.80485300  0.00776900  0.33869900  1
  O  O84  1  0.30630100  0.00439800  0.45201700  1
