# generated using pymatgen
data_MgTiMnVZnCrFeCoCuNiSb20ClO54
_symmetry_space_group_name_H-M   'P 1'
_cell_length_a   6.66229000
_cell_length_b   9.43955200
_cell_length_c   29.00244200
_cell_angle_alpha   89.93804300
_cell_angle_beta   89.98308000
_cell_angle_gamma   89.99819200
_symmetry_Int_Tables_number   1
_chemical_formula_structural   MgTiMnVZnCrFeCoCuNiSb20ClO54
_chemical_formula_sum
'Mg1 Ti1 Mn1 V1 Zn1 Cr1 Fe1 Co1 Cu1 Ni1 Sb20 Cl1 O54'
_cell_volume   1823.93438214
_cell_formula_units_Z   1
loop_
 _symmetry_equiv_pos_site_id
 _symmetry_equiv_pos_as_xyz
  1  'x, y, z'
loop_
 _atom_site_type_symbol
 _atom_site_label
 _atom_site_symmetry_multiplicity
 _atom_site_fract_x
 _atom_site_fract_y
 _atom_site_fract_z
 _atom_site_occupancy
  Mg  Mg0  1  0.00000000  0.66768000  0.77241000  1
  Ti  Ti1  1  0.50000000  0.66768000  0.88621000  1
  Mn  Mn2  1  0.50000000  0.83232000  0.77241000  1
  V  V3  1  0.00000000  0.83232000  0.88621000  1
  Zn  Zn4  1  0.50000000  0.83232000  0.00000000  1
  Cr  Cr5  1  0.50215300  0.50486200  0.54794400  1
  Fe  Fe6  1  0.00215200  0.66645800  0.55397300  1
  Co  Co7  1  0.00000000  0.00000000  0.77241000  1
  Cu  Cu8  1  0.50000000  0.16768000  0.00000000  1
  Ni  Ni9  1  0.50000000  0.50000000  0.77241000  1
  Sb  Sb10  1  0.00000000  0.00000000  0.00000000  1
  Sb  Sb11  1  0.50000000  0.00000000  0.88621000  1
  Sb  Sb12  1  0.50048200  0.99394100  0.65436600  1
  Sb  Sb13  1  0.00134100  0.97080600  0.53933700  1
  Sb  Sb14  1  0.50000000  0.50000000  0.00000000  1
  Sb  Sb15  1  0.00000000  0.50000000  0.88621000  1
  Sb  Sb16  1  0.00001300  0.50038800  0.66130900  1
  Sb  Sb17  1  0.00000000  0.33232000  0.00000000  1
  Sb  Sb18  1  0.50000000  0.33232000  0.88621000  1
  Sb  Sb19  1  0.00000000  0.33232000  0.77241000  1
  Sb  Sb20  1  0.50040500  0.34140900  0.65621500  1
  Sb  Sb21  1  0.00139500  0.36202300  0.53692100  1
  Sb  Sb22  1  0.99979400  0.83505100  0.66435900  1
  Sb  Sb23  1  0.50212200  0.82338600  0.52888800  1
  Sb  Sb24  1  0.00000000  0.16768000  0.88621000  1
  Sb  Sb25  1  0.50000000  0.16768000  0.77241000  1
  Sb  Sb26  1  0.00154600  0.16609500  0.65645700  1
  Sb  Sb27  1  0.50252700  0.17909000  0.53728600  1
  Sb  Sb28  1  0.00000000  0.66768000  0.00000000  1
  Sb  Sb29  1  0.50002400  0.66807500  0.66513100  1
  Cl  Cl30  1  0.50468700  0.47674100  0.47106700  1
  O  O31  1  0.00000000  0.17164000  0.95506000  1
  O  O32  1  0.50000000  0.17164000  0.84126000  1
  O  O33  1  0.99980400  0.15525700  0.72934800  1
  O  O34  1  0.49907200  0.16965700  0.61320200  1
  O  O35  1  0.50000000  0.17164000  0.93115000  1
  O  O36  1  0.00000000  0.17164000  0.81736000  1
  O  O37  1  0.50004700  0.16820300  0.69962400  1
  O  O38  1  0.00216300  0.16773900  0.56453600  1
  O  O39  1  0.30253000  0.67164000  0.00000000  1
  O  O40  1  0.80253000  0.67164000  0.88621000  1
  O  O41  1  0.30253000  0.67164000  0.77241000  1
  O  O42  1  0.80677000  0.66603500  0.66078500  1
  O  O43  1  0.29109200  0.66084100  0.54542400  1
  O  O44  1  0.69747000  0.67164000  0.00000000  1
  O  O45  1  0.19747000  0.67164000  0.88621000  1
  O  O46  1  0.69747000  0.67164000  0.77241000  1
  O  O47  1  0.19340200  0.66610200  0.66132500  1
  O  O48  1  0.71275300  0.66062700  0.54593900  1
  O  O49  1  0.30253000  0.32836000  0.00000000  1
  O  O50  1  0.80253000  0.32836000  0.88621000  1
  O  O51  1  0.30253000  0.32836000  0.77241000  1
  O  O52  1  0.79532100  0.34495600  0.66410000  1
  O  O53  1  0.31145300  0.35011400  0.55649800  1
  O  O54  1  0.69747000  0.32836000  0.00000000  1
  O  O55  1  0.19747000  0.32836000  0.88621000  1
  O  O56  1  0.69747000  0.32836000  0.77241000  1
  O  O57  1  0.20550100  0.34563100  0.66457500  1
  O  O58  1  0.69279500  0.34968700  0.55735100  1
  O  O59  1  0.00000000  0.82836000  0.95506000  1
  O  O60  1  0.50000000  0.82836000  0.84126000  1
  O  O61  1  0.99978400  0.84468700  0.72933600  1
  O  O62  1  0.50023600  0.81793700  0.61634800  1
  O  O63  1  0.50000000  0.82836000  0.93115000  1
  O  O64  1  0.00000000  0.82836000  0.81736000  1
  O  O65  1  0.50195400  0.83933000  0.70512400  1
  O  O66  1  0.00176200  0.83335100  0.59565800  1
  O  O67  1  0.00000000  0.50000000  0.95668000  1
  O  O68  1  0.50000000  0.50000000  0.84289000  1
  O  O69  1  0.99950800  0.49998000  0.72830400  1
  O  O70  1  0.49971300  0.51534800  0.61660200  1
  O  O71  1  0.50000000  0.50000000  0.92952000  1
  O  O72  1  0.00000000  0.50000000  0.81573000  1
  O  O73  1  0.50077400  0.49760700  0.70461900  1
  O  O74  1  0.00201700  0.49604900  0.59386000  1
  O  O75  1  0.30966000  0.00000000  0.00000000  1
  O  O76  1  0.80966000  0.00000000  0.88621000  1
  O  O77  1  0.30966000  0.00000000  0.77241000  1
  O  O78  1  0.79357600  0.99194700  0.66082100  1
  O  O79  1  0.30974700  0.98853600  0.55473200  1
  O  O80  1  0.69034000  0.00000000  0.00000000  1
  O  O81  1  0.19034000  0.00000000  0.88621000  1
  O  O82  1  0.69034000  0.00000000  0.77241000  1
  O  O83  1  0.20755600  0.99080500  0.66090000  1
  O  O84  1  0.69360900  0.98870400  0.55564200  1
