# generated using pymatgen
data_MgTiMnVZnCrFeCoCuNiSb20ClO54
_symmetry_space_group_name_H-M   'P 1'
_cell_length_a   6.69285300
_cell_length_b   9.39144900
_cell_length_c   29.21038000
_cell_angle_alpha   90.00309700
_cell_angle_beta   89.99277100
_cell_angle_gamma   89.99374400
_symmetry_Int_Tables_number   1
_chemical_formula_structural   MgTiMnVZnCrFeCoCuNiSb20ClO54
_chemical_formula_sum
'Mg1 Ti1 Mn1 V1 Zn1 Cr1 Fe1 Co1 Cu1 Ni1 Sb20 Cl1 O54'
_cell_volume   1836.03557109
_cell_formula_units_Z   1
loop_
 _symmetry_equiv_pos_site_id
 _symmetry_equiv_pos_as_xyz
  1  'x, y, z'
loop_
 _atom_site_type_symbol
 _atom_site_label
 _atom_site_symmetry_multiplicity
 _atom_site_fract_x
 _atom_site_fract_y
 _atom_site_fract_z
 _atom_site_occupancy
  Mg  Mg0  1  0.50002200  0.33404500  0.34294800  1
  Ti  Ti1  1  0.50000000  0.16768000  0.22759000  1
  Mn  Mn2  1  0.00000000  0.50000000  0.11379000  1
  V  V3  1  0.00000000  0.33232000  0.22759000  1
  Zn  Zn4  1  0.50000000  1.00000000  0.11379000  1
  Cr  Cr5  1  0.50107800  0.50928700  0.45090800  1
  Fe  Fe6  1  0.50116300  0.82664500  0.44881800  1
  Co  Co7  1  0.99989900  0.83558100  0.34173900  1
  Cu  Cu8  1  0.00000000  0.83232000  0.11379000  1
  Ni  Ni9  1  0.50000000  0.50000000  0.00000000  1
  Sb  Sb10  1  0.00000000  0.00000000  0.00000000  1
  Sb  Sb11  1  0.00000000  1.00000000  0.22759000  1
  Sb  Sb12  1  0.49998500  0.01081200  0.34119700  1
  Sb  Sb13  1  0.00199300  0.99272000  0.45773200  1
  Sb  Sb14  1  0.50000000  0.50000000  0.22759000  1
  Sb  Sb15  1  0.00027400  0.50115700  0.34114200  1
  Sb  Sb16  1  0.00000000  0.66768000  0.00000000  1
  Sb  Sb17  1  0.50000000  0.66768000  0.11379000  1
  Sb  Sb18  1  0.00000000  0.66768000  0.22759000  1
  Sb  Sb19  1  0.49964100  0.66082300  0.34263400  1
  Sb  Sb20  1  0.00040400  0.67217500  0.45733300  1
  Sb  Sb21  1  0.50000000  0.16768000  0.00000000  1
  Sb  Sb22  1  0.00000000  0.16768000  0.11379000  1
  Sb  Sb23  1  0.99999200  0.16730900  0.34124600  1
  Sb  Sb24  1  0.50215600  0.17704400  0.45751700  1
  Sb  Sb25  1  0.50000000  0.83232000  0.00000000  1
  Sb  Sb26  1  0.50000000  0.83232000  0.22759000  1
  Sb  Sb27  1  0.00000000  0.33232000  0.00000000  1
  Sb  Sb28  1  0.50000000  0.33232000  0.11379000  1
  Sb  Sb29  1  0.00003800  0.33933100  0.46104100  1
  Cl  Cl30  1  0.50997200  0.48645900  0.52782900  1
  O  O31  1  1.00000000  0.82836000  0.04494000  1
  O  O32  1  0.50000000  0.82836000  0.15874000  1
  O  O33  1  0.99980400  0.84474300  0.27065200  1
  O  O34  1  0.49915500  0.83726200  0.38132600  1
  O  O35  1  0.50000000  0.82836000  0.06885000  1
  O  O36  1  0.00000000  0.82836000  0.18264000  1
  O  O37  1  0.50060200  0.83324000  0.29659200  1
  O  O38  1  0.00344400  0.83265700  0.40940100  1
  O  O39  1  0.30253000  0.32836000  0.00000000  1
  O  O40  1  0.80253000  0.32836000  0.11379000  1
  O  O41  1  0.30253000  0.32836000  0.22759000  1
  O  O42  1  0.80889200  0.33309300  0.33994600  1
  O  O43  1  0.30624200  0.34702900  0.44571100  1
  O  O44  1  0.69747000  0.32836000  0.00000000  1
  O  O45  1  0.19747000  0.32836000  0.11379000  1
  O  O46  1  0.69747000  0.32836000  0.22759000  1
  O  O47  1  0.19112700  0.33281200  0.33989100  1
  O  O48  1  0.69601300  0.34789700  0.44414000  1
  O  O49  1  0.30253000  0.67164000  0.00000000  1
  O  O50  1  0.80253000  0.67164000  0.11379000  1
  O  O51  1  0.30253000  0.67164000  0.22759000  1
  O  O52  1  0.80581000  0.66575100  0.33930000  1
  O  O53  1  0.31853000  0.67517500  0.45123100  1
  O  O54  1  0.69747000  0.67164000  0.00000000  1
  O  O55  1  0.19747000  0.67164000  0.11379000  1
  O  O56  1  0.69747000  0.67164000  0.22759000  1
  O  O57  1  0.19348000  0.66631100  0.33834200  1
  O  O58  1  0.68283500  0.67463000  0.44974800  1
  O  O59  1  0.00000000  0.17164000  0.04494000  1
  O  O60  1  0.50000000  0.17164000  0.15874000  1
  O  O61  1  0.99978400  0.15531300  0.27066400  1
  O  O62  1  0.49977300  0.16232900  0.38756500  1
  O  O63  1  0.50000000  0.17164000  0.06885000  1
  O  O64  1  0.00000000  0.17164000  0.18264000  1
  O  O65  1  0.50021000  0.16422200  0.29493400  1
  O  O66  1  0.00076800  0.16423400  0.41211300  1
  O  O67  1  0.00000000  0.50000000  0.04332000  1
  O  O68  1  0.50000000  0.50000000  0.15711000  1
  O  O69  1  0.99950800  0.50002000  0.27169600  1
  O  O70  1  0.49587100  0.50495000  0.38501900  1
  O  O71  1  0.50000000  0.50000000  0.07048000  1
  O  O72  1  0.00000000  0.50000000  0.18427000  1
  O  O73  1  0.50083600  0.50482700  0.29606000  1
  O  O74  1  0.00310300  0.50571600  0.41096300  1
  O  O75  1  0.30966000  0.00000000  0.00000000  1
  O  O76  1  0.80966000  1.00000000  0.11379000  1
  O  O77  1  0.30966000  0.00000000  0.22759000  1
  O  O78  1  0.80457700  0.00468800  0.34147100  1
  O  O79  1  0.31390100  0.96934100  0.45468600  1
  O  O80  1  0.69034000  1.00000000  0.00000000  1
  O  O81  1  0.19034000  0.00000000  0.11379000  1
  O  O82  1  0.69034000  1.00000000  0.22759000  1
  O  O83  1  0.19550200  0.00472800  0.34117600  1
  O  O84  1  0.69044700  0.96700700  0.45441500  1
