# generated using pymatgen
data_MgTiMnVZnCrFeCoCuNiSb20ClO54
_symmetry_space_group_name_H-M   'P 1'
_cell_length_a   6.69653200
_cell_length_b   9.42971600
_cell_length_c   29.65820900
_cell_angle_alpha   89.84501000
_cell_angle_beta   89.91244600
_cell_angle_gamma   89.92157400
_symmetry_Int_Tables_number   1
_chemical_formula_structural   MgTiMnVZnCrFeCoCuNiSb20ClO54
_chemical_formula_sum
'Mg1 Ti1 Mn1 V1 Zn1 Cr1 Fe1 Co1 Cu1 Ni1 Sb20 Cl1 O54'
_cell_volume   1872.79819628
_cell_formula_units_Z   1
loop_
 _symmetry_equiv_pos_site_id
 _symmetry_equiv_pos_as_xyz
  1  'x, y, z'
loop_
 _atom_site_type_symbol
 _atom_site_label
 _atom_site_symmetry_multiplicity
 _atom_site_fract_x
 _atom_site_fract_y
 _atom_site_fract_z
 _atom_site_occupancy
  Mg  Mg0  1  0.50201200  0.16218900  0.55629900  1
  Ti  Ti1  1  0.00000000  0.33232000  0.77241000  1
  Mn  Mn2  1  0.50000000  0.83232000  0.00000000  1
  V  V3  1  0.00000000  0.50000000  0.88621000  1
  Zn  Zn4  1  0.50073000  0.66891400  0.66271300  1
  Cr  Cr5  1  0.50302100  0.48271300  0.55389100  1
  Fe  Fe6  1  0.00052300  0.51162500  0.65978100  1
  Co  Co7  1  0.00000000  0.83232000  0.88621000  1
  Cu  Cu8  1  0.50000000  0.16768000  0.00000000  1
  Ni  Ni9  1  0.50255000  0.00139800  0.66498500  1
  Sb  Sb10  1  0.00000000  0.00000000  0.00000000  1
  Sb  Sb11  1  0.50000000  0.00000000  0.88621000  1
  Sb  Sb12  1  0.00000000  1.00000000  0.77241000  1
  Sb  Sb13  1  0.99960000  0.00299500  0.53929500  1
  Sb  Sb14  1  0.50000000  0.50000000  0.00000000  1
  Sb  Sb15  1  0.50000000  0.50000000  0.77241000  1
  Sb  Sb16  1  0.00000000  0.66768000  0.00000000  1
  Sb  Sb17  1  0.50000000  0.66768000  0.88621000  1
  Sb  Sb18  1  0.00000000  0.66768000  0.77241000  1
  Sb  Sb19  1  0.00422400  0.66416800  0.54327500  1
  Sb  Sb20  1  0.00000000  0.16768000  0.88621000  1
  Sb  Sb21  1  0.50000000  0.16768000  0.77241000  1
  Sb  Sb22  1  0.99899100  0.16572500  0.65842000  1
  Sb  Sb23  1  0.50000000  0.83232000  0.77241000  1
  Sb  Sb24  1  0.00091000  0.83076400  0.65725700  1
  Sb  Sb25  1  0.50180900  0.82668000  0.56112300  1
  Sb  Sb26  1  0.00000000  0.33232000  0.00000000  1
  Sb  Sb27  1  0.50000000  0.33232000  0.88621000  1
  Sb  Sb28  1  0.49918800  0.32887000  0.65808700  1
  Sb  Sb29  1  0.01496800  0.33944700  0.54380000  1
  Cl  Cl30  1  0.44732400  0.50890700  0.47888400  1
  O  O31  1  0.00000000  0.82836000  0.95506000  1
  O  O32  1  0.50000000  0.82836000  0.84126000  1
  O  O33  1  0.00019600  0.84474300  0.72934800  1
  O  O34  1  0.50884800  0.84311200  0.62412000  1
  O  O35  1  0.50000000  0.82836000  0.93115000  1
  O  O36  1  0.00000000  0.82836000  0.81736000  1
  O  O37  1  0.49851400  0.83769200  0.70805100  1
  O  O38  1  0.99477000  0.83816500  0.58651300  1
  O  O39  1  0.69747000  0.32836000  0.00000000  1
  O  O40  1  0.19747000  0.32836000  0.88621000  1
  O  O41  1  0.69747000  0.32836000  0.77241000  1
  O  O42  1  0.19073200  0.32810700  0.66056600  1
  O  O43  1  0.68401200  0.34277500  0.55109100  1
  O  O44  1  0.30253000  0.32836000  0.00000000  1
  O  O45  1  0.80253000  0.32836000  0.88621000  1
  O  O46  1  0.30253000  0.32836000  0.77241000  1
  O  O47  1  0.80978700  0.33084500  0.66110900  1
  O  O48  1  0.31136900  0.32847100  0.55523800  1
  O  O49  1  0.69747000  0.67164000  0.00000000  1
  O  O50  1  0.19747000  0.67164000  0.88621000  1
  O  O51  1  0.69747000  0.67164000  0.77241000  1
  O  O52  1  0.19116200  0.67149400  0.66046400  1
  O  O53  1  0.68639600  0.66050600  0.55209500  1
  O  O54  1  0.30253000  0.67164000  0.00000000  1
  O  O55  1  0.80253000  0.67164000  0.88621000  1
  O  O56  1  0.30253000  0.67164000  0.77241000  1
  O  O57  1  0.81095000  0.67144300  0.66054300  1
  O  O58  1  0.31341800  0.66343700  0.55772900  1
  O  O59  1  0.00000000  0.17164000  0.95506000  1
  O  O60  1  0.50000000  0.17164000  0.84126000  1
  O  O61  1  0.00021600  0.15531300  0.72933600  1
  O  O62  1  0.50930200  0.15860800  0.62160700  1
  O  O63  1  0.50000000  0.17164000  0.93115000  1
  O  O64  1  0.00000000  0.17164000  0.81736000  1
  O  O65  1  0.49935400  0.16850000  0.70649200  1
  O  O66  1  0.99096000  0.16397600  0.58780200  1
  O  O67  1  0.00000000  0.50000000  0.95668000  1
  O  O68  1  0.50000000  0.50000000  0.84289000  1
  O  O69  1  0.00049200  0.50002000  0.72830400  1
  O  O70  1  0.49727900  0.49458800  0.61708500  1
  O  O71  1  0.50000000  0.50000000  0.92952000  1
  O  O72  1  0.00000000  0.50000000  0.81573000  1
  O  O73  1  0.49898900  0.48750200  0.70450200  1
  O  O74  1  0.00107000  0.50318000  0.58900300  1
  O  O75  1  0.69034000  1.00000000  0.00000000  1
  O  O76  1  0.19034000  0.00000000  0.88621000  1
  O  O77  1  0.69034000  1.00000000  0.77241000  1
  O  O78  1  0.19304900  0.00058700  0.65909100  1
  O  O79  1  0.68701100  0.98446600  0.54251300  1
  O  O80  1  0.30966000  0.00000000  0.00000000  1
  O  O81  1  0.80966000  1.00000000  0.88621000  1
  O  O82  1  0.30966000  0.00000000  0.77241000  1
  O  O83  1  0.80922100  0.99995800  0.66120300  1
  O  O84  1  0.31238300  0.98374800  0.54447100  1
