# generated using pymatgen
data_MgTiMnVZnCrFeCoCuNiSb20ClO54
_symmetry_space_group_name_H-M   'P 1'
_cell_length_a   6.73519500
_cell_length_b   9.40036300
_cell_length_c   28.85946300
_cell_angle_alpha   89.84403600
_cell_angle_beta   89.97583000
_cell_angle_gamma   89.99110700
_symmetry_Int_Tables_number   1
_chemical_formula_structural   MgTiMnVZnCrFeCoCuNiSb20ClO54
_chemical_formula_sum
'Mg1 Ti1 Mn1 V1 Zn1 Cr1 Fe1 Co1 Cu1 Ni1 Sb20 Cl1 O54'
_cell_volume   1827.18024651
_cell_formula_units_Z   1
loop_
 _symmetry_equiv_pos_site_id
 _symmetry_equiv_pos_as_xyz
  1  'x, y, z'
loop_
 _atom_site_type_symbol
 _atom_site_label
 _atom_site_symmetry_multiplicity
 _atom_site_fract_x
 _atom_site_fract_y
 _atom_site_fract_z
 _atom_site_occupancy
  Mg  Mg0  1  0.50000000  0.66768000  0.11379000  1
  Ti  Ti1  1  0.50000000  0.83232000  0.00000000  1
  Mn  Mn2  1  0.99944100  0.82859600  0.33052000  1
  V  V3  1  0.50000000  0.83232000  0.22759000  1
  Zn  Zn4  1  1.00000000  0.00000000  0.22759000  1
  Cr  Cr5  1  0.50380600  0.49411900  0.45337200  1
  Fe  Fe6  1  0.49955800  0.66848300  0.34014400  1
  Co  Co7  1  0.50053400  0.17394400  0.44989500  1
  Cu  Cu8  1  1.00000000  0.66768000  0.22759000  1
  Ni  Ni9  1  0.50000000  0.33232000  0.11379000  1
  Sb  Sb10  1  0.00000000  0.00000000  0.00000000  1
  Sb  Sb11  1  0.50000000  0.00000000  0.11379000  1
  Sb  Sb12  1  0.49965500  0.98951800  0.33972800  1
  Sb  Sb13  1  0.00129600  0.99938800  0.46053800  1
  Sb  Sb14  1  0.50000000  0.50000000  0.00000000  1
  Sb  Sb15  1  1.00000000  0.50000000  0.11379000  1
  Sb  Sb16  1  0.50000000  0.50000000  0.22759000  1
  Sb  Sb17  1  0.00000900  0.51692700  0.34139600  1
  Sb  Sb18  1  0.00000000  0.66768000  0.00000000  1
  Sb  Sb19  1  0.00233100  0.66490700  0.46223000  1
  Sb  Sb20  1  0.50000000  0.16768000  0.00000000  1
  Sb  Sb21  1  1.00000000  0.16768000  0.11379000  1
  Sb  Sb22  1  0.50000000  0.16768000  0.22759000  1
  Sb  Sb23  1  0.00006600  0.15697300  0.34011700  1
  Sb  Sb24  1  1.00000000  0.83232000  0.11379000  1
  Sb  Sb25  1  0.50313800  0.83421000  0.45597900  1
  Sb  Sb26  1  0.00000000  0.33232000  0.00000000  1
  Sb  Sb27  1  1.00000000  0.33232000  0.22759000  1
  Sb  Sb28  1  0.49987400  0.33689300  0.34567500  1
  Sb  Sb29  1  0.00183900  0.32840300  0.46001400  1
  Cl  Cl30  1  0.51026100  0.49996900  0.53078600  1
  O  O31  1  1.00000000  0.82836000  0.04494000  1
  O  O32  1  0.50000000  0.82836000  0.15874000  1
  O  O33  1  0.99980400  0.84474300  0.27065200  1
  O  O34  1  0.49976300  0.83258800  0.38579900  1
  O  O35  1  0.50000000  0.82836000  0.06885000  1
  O  O36  1  1.00000000  0.82836000  0.18264000  1
  O  O37  1  0.50007600  0.83174500  0.29453800  1
  O  O38  1  0.00034700  0.83186800  0.41655300  1
  O  O39  1  0.30253000  0.32836000  0.00000000  1
  O  O40  1  0.80253000  0.32836000  0.11379000  1
  O  O41  1  0.30253000  0.32836000  0.22759000  1
  O  O42  1  0.80687900  0.32733600  0.34146300  1
  O  O43  1  0.31903100  0.32818100  0.45034000  1
  O  O44  1  0.69747000  0.32836000  0.00000000  1
  O  O45  1  0.19747000  0.32836000  0.11379000  1
  O  O46  1  0.69747000  0.32836000  0.22759000  1
  O  O47  1  0.19278800  0.32725600  0.34103600  1
  O  O48  1  0.68222300  0.33058000  0.44808300  1
  O  O49  1  0.30253000  0.67164000  0.00000000  1
  O  O50  1  0.80253000  0.67164000  0.11379000  1
  O  O51  1  0.30253000  0.67164000  0.22759000  1
  O  O52  1  0.80908800  0.68635500  0.33863900  1
  O  O53  1  0.31272100  0.64708600  0.45016400  1
  O  O54  1  0.69747000  0.67164000  0.00000000  1
  O  O55  1  0.19747000  0.67164000  0.11379000  1
  O  O56  1  0.69747000  0.67164000  0.22759000  1
  O  O57  1  0.18960700  0.68665500  0.33829300  1
  O  O58  1  0.69314600  0.64427300  0.44845200  1
  O  O59  1  1.00000000  0.17164000  0.04494000  1
  O  O60  1  0.50000000  0.17164000  0.15874000  1
  O  O61  1  0.99978400  0.15531300  0.27066400  1
  O  O62  1  0.49569900  0.15788100  0.38358900  1
  O  O63  1  0.50000000  0.17164000  0.06885000  1
  O  O64  1  1.00000000  0.17164000  0.18264000  1
  O  O65  1  0.50043500  0.17256200  0.29750200  1
  O  O66  1  0.00387700  0.16298800  0.41135600  1
  O  O67  1  1.00000000  0.50000000  0.04332000  1
  O  O68  1  0.50000000  0.50000000  0.15711000  1
  O  O69  1  0.99950800  0.50002000  0.27169600  1
  O  O70  1  0.49434900  0.50694500  0.38434800  1
  O  O71  1  0.50000000  0.50000000  0.07048000  1
  O  O72  1  1.00000000  0.50000000  0.18427000  1
  O  O73  1  0.50027100  0.49248800  0.29694200  1
  O  O74  1  0.00478200  0.49833900  0.41494200  1
  O  O75  1  0.30966000  0.00000000  0.00000000  1
  O  O76  1  0.80966000  0.00000000  0.11379000  1
  O  O77  1  0.30966000  0.00000000  0.22759000  1
  O  O78  1  0.80908100  0.99136600  0.34094900  1
  O  O79  1  0.31359600  0.01898900  0.45595400  1
  O  O80  1  0.69034000  0.00000000  0.00000000  1
  O  O81  1  0.19034000  0.00000000  0.11379000  1
  O  O82  1  0.69034000  0.00000000  0.22759000  1
  O  O83  1  0.19010300  0.99083500  0.34049100  1
  O  O84  1  0.68784800  0.02348700  0.45402900  1
