# generated using pymatgen
data_MgTiMnVZnCrFeCoCuNiSb20ClO54
_symmetry_space_group_name_H-M   'P 1'
_cell_length_a   6.65199500
_cell_length_b   9.66120700
_cell_length_c   29.22286600
_cell_angle_alpha   90.10282200
_cell_angle_beta   89.99819600
_cell_angle_gamma   89.98537100
_symmetry_Int_Tables_number   1
_chemical_formula_structural   MgTiMnVZnCrFeCoCuNiSb20ClO54
_chemical_formula_sum
'Mg1 Ti1 Mn1 V1 Zn1 Cr1 Fe1 Co1 Cu1 Ni1 Sb20 Cl1 O54'
_cell_volume   1878.04240612
_cell_formula_units_Z   1
loop_
 _symmetry_equiv_pos_site_id
 _symmetry_equiv_pos_as_xyz
  1  'x, y, z'
loop_
 _atom_site_type_symbol
 _atom_site_label
 _atom_site_symmetry_multiplicity
 _atom_site_fract_x
 _atom_site_fract_y
 _atom_site_fract_z
 _atom_site_occupancy
  Mg  Mg0  1  0.99514700  0.99501800  0.56849000  1
  Ti  Ti1  1  0.99992500  0.35116900  0.56963300  1
  Mn  Mn2  1  1.00000000  0.66768000  0.00000000  1
  V  V3  1  1.00000000  0.50000000  0.88621000  1
  Zn  Zn4  1  0.00000000  0.33232000  0.77241000  1
  Cr  Cr5  1  0.50093500  0.49872900  0.54767500  1
  Fe  Fe6  1  0.50000000  0.50000000  0.00000000  1
  Co  Co7  1  0.99959000  0.82143200  0.66459600  1
  Cu  Cu8  1  1.00000000  1.00000000  0.77241000  1
  Ni  Ni9  1  0.99946300  0.51291300  0.66496400  1
  Sb  Sb10  1  0.00000000  0.00000000  0.00000000  1
  Sb  Sb11  1  0.50000000  1.00000000  0.88621000  1
  Sb  Sb12  1  0.49914700  0.99820000  0.65541000  1
  Sb  Sb13  1  0.50000000  0.50000000  0.77241000  1
  Sb  Sb14  1  0.50000000  0.66768000  0.88621000  1
  Sb  Sb15  1  0.00000000  0.66768000  0.77241000  1
  Sb  Sb16  1  0.49964600  0.66495600  0.65413600  1
  Sb  Sb17  1  0.00077500  0.66710900  0.55278000  1
  Sb  Sb18  1  0.50000000  0.16768000  0.00000000  1
  Sb  Sb19  1  0.00000000  0.16768000  0.88621000  1
  Sb  Sb20  1  0.50000000  0.16768000  0.77241000  1
  Sb  Sb21  1  0.99921300  0.16605600  0.66463300  1
  Sb  Sb22  1  0.49501800  0.15363700  0.53917000  1
  Sb  Sb23  1  0.50000000  0.83232000  0.00000000  1
  Sb  Sb24  1  0.00000000  0.83232000  0.88621000  1
  Sb  Sb25  1  0.50000000  0.83232000  0.77241000  1
  Sb  Sb26  1  0.49806200  0.81931700  0.53601700  1
  Sb  Sb27  1  0.00000000  0.33232000  0.00000000  1
  Sb  Sb28  1  0.50000000  0.33232000  0.88621000  1
  Sb  Sb29  1  0.49992800  0.33136400  0.65839800  1
  Cl  Cl30  1  0.49485200  0.52361100  0.47235800  1
  O  O31  1  0.00000000  0.82836000  0.95506000  1
  O  O32  1  0.50000000  0.82836000  0.84126000  1
  O  O33  1  0.00019600  0.84474300  0.72934800  1
  O  O34  1  0.49848200  0.83755500  0.61198200  1
  O  O35  1  0.50000000  0.82836000  0.93115000  1
  O  O36  1  0.00000000  0.82836000  0.81736000  1
  O  O37  1  0.49850500  0.83681800  0.70179000  1
  O  O38  1  0.00027000  0.81675700  0.59767300  1
  O  O39  1  0.69747000  0.32836000  0.00000000  1
  O  O40  1  0.19747000  0.32836000  0.88621000  1
  O  O41  1  0.69747000  0.32836000  0.77241000  1
  O  O42  1  0.19761200  0.33034500  0.65875800  1
  O  O43  1  0.73997100  0.37060900  0.54588400  1
  O  O44  1  0.30253000  0.32836000  0.00000000  1
  O  O45  1  0.80253000  0.32836000  0.88621000  1
  O  O46  1  0.30253000  0.32836000  0.77241000  1
  O  O47  1  0.80166500  0.33045400  0.66021700  1
  O  O48  1  0.26203100  0.36476700  0.54653500  1
  O  O49  1  0.69747000  0.67164000  0.00000000  1
  O  O50  1  0.19747000  0.67164000  0.88621000  1
  O  O51  1  0.69747000  0.67164000  0.77241000  1
  O  O52  1  0.20509500  0.66716800  0.66523200  1
  O  O53  1  0.68357800  0.65239500  0.55806000  1
  O  O54  1  0.30253000  0.67164000  0.00000000  1
  O  O55  1  0.80253000  0.67164000  0.88621000  1
  O  O56  1  0.30253000  0.67164000  0.77241000  1
  O  O57  1  0.79408300  0.66770000  0.66542400  1
  O  O58  1  0.31936900  0.64679100  0.55987800  1
  O  O59  1  0.00000000  0.17164000  0.95506000  1
  O  O60  1  0.50000000  0.17164000  0.84126000  1
  O  O61  1  0.00021600  0.15531300  0.72933600  1
  O  O62  1  0.50032300  0.16934500  0.61235200  1
  O  O63  1  0.50000000  0.17164000  0.93115000  1
  O  O64  1  0.00000000  0.17164000  0.81736000  1
  O  O65  1  0.49775000  0.16356300  0.70169600  1
  O  O66  1  0.99323400  0.17647700  0.59624900  1
  O  O67  1  0.00000000  0.50000000  0.95668000  1
  O  O68  1  0.50000000  0.50000000  0.84289000  1
  O  O69  1  0.00049200  0.50002000  0.72830400  1
  O  O70  1  0.50614100  0.48763900  0.61552300  1
  O  O71  1  0.50000000  0.50000000  0.92952000  1
  O  O72  1  0.00000000  0.50000000  0.81573000  1
  O  O73  1  0.49833400  0.49659800  0.70262300  1
  O  O74  1  0.99918100  0.51564900  0.59958200  1
  O  O75  1  0.69034000  0.00000000  1.00000000  1
  O  O76  1  0.19034000  1.00000000  0.88621000  1
  O  O77  1  0.69034000  1.00000000  0.77241000  1
  O  O78  1  0.19728100  0.00242400  0.65639800  1
  O  O79  1  0.70372000  0.99668200  0.54633700  1
  O  O80  1  0.30966000  0.00000000  1.00000000  1
  O  O81  1  0.80966000  1.00000000  0.88621000  1
  O  O82  1  0.30966000  1.00000000  0.77241000  1
  O  O83  1  0.80086300  0.00210000  0.65668200  1
  O  O84  1  0.28671500  0.00131300  0.54654300  1
