# generated using pymatgen
data_MgTiMnVZnCrFeCoCuNiSb20ClO54
_symmetry_space_group_name_H-M   'P 1'
_cell_length_a   6.65679300
_cell_length_b   9.52147500
_cell_length_c   28.99811300
_cell_angle_alpha   89.96641200
_cell_angle_beta   89.98871000
_cell_angle_gamma   89.98178500
_symmetry_Int_Tables_number   1
_chemical_formula_structural   MgTiMnVZnCrFeCoCuNiSb20ClO54
_chemical_formula_sum
'Mg1 Ti1 Mn1 V1 Zn1 Cr1 Fe1 Co1 Cu1 Ni1 Sb20 Cl1 O54'
_cell_volume   1837.97210870
_cell_formula_units_Z   1
loop_
 _symmetry_equiv_pos_site_id
 _symmetry_equiv_pos_as_xyz
  1  'x, y, z'
loop_
 _atom_site_type_symbol
 _atom_site_label
 _atom_site_symmetry_multiplicity
 _atom_site_fract_x
 _atom_site_fract_y
 _atom_site_fract_z
 _atom_site_occupancy
  Mg  Mg0  1  0.50000000  0.66768000  0.88621000  1
  Ti  Ti1  1  0.00000000  0.50000000  0.88621000  1
  Mn  Mn2  1  0.00000000  0.00000000  0.00000000  1
  V  V3  1  0.00382900  0.33075200  0.55251500  1
  Zn  Zn4  1  0.00000000  0.16768000  0.88621000  1
  Cr  Cr5  1  0.50737800  0.50520000  0.53885200  1
  Fe  Fe6  1  0.50000000  0.50000000  0.77241000  1
  Co  Co7  1  0.50345100  0.80804600  0.54996200  1
  Cu  Cu8  1  0.50000000  0.16768000  0.00000000  1
  Ni  Ni9  1  0.49738600  0.65764800  0.65873500  1
  Sb  Sb10  1  0.50000000  0.00000000  0.88621000  1
  Sb  Sb11  1  0.00000000  0.00000000  0.77241000  1
  Sb  Sb12  1  0.50047000  0.98950900  0.65687900  1
  Sb  Sb13  1  0.00368800  0.98141500  0.52307400  1
  Sb  Sb14  1  0.50000000  0.50000000  0.00000000  1
  Sb  Sb15  1  0.99908500  0.50651900  0.65675600  1
  Sb  Sb16  1  0.00000000  0.33232000  0.00000000  1
  Sb  Sb17  1  0.50000000  0.33232000  0.88621000  1
  Sb  Sb18  1  0.00000000  0.33232000  0.77241000  1
  Sb  Sb19  1  0.50233500  0.35189200  0.65633200  1
  Sb  Sb20  1  0.50000000  0.83232000  0.00000000  1
  Sb  Sb21  1  0.00000000  0.83232000  0.88621000  1
  Sb  Sb22  1  0.50000000  0.83232000  0.77241000  1
  Sb  Sb23  1  0.99898400  0.82217500  0.64731500  1
  Sb  Sb24  1  0.50000000  0.16768000  0.77241000  1
  Sb  Sb25  1  0.00395800  0.15704900  0.65220500  1
  Sb  Sb26  1  0.50190300  0.13950500  0.53899000  1
  Sb  Sb27  1  0.00000000  0.66768000  0.00000000  1
  Sb  Sb28  1  0.00000000  0.66768000  0.77241000  1
  Sb  Sb29  1  0.00674600  0.63430400  0.53055800  1
  Cl  Cl30  1  0.50102200  0.49972200  0.46218700  1
  O  O31  1  0.00000000  0.17164000  0.95506000  1
  O  O32  1  0.50000000  0.17164000  0.84126000  1
  O  O33  1  0.99980400  0.15525700  0.72934800  1
  O  O34  1  0.49835400  0.16501000  0.61164800  1
  O  O35  1  0.50000000  0.17164000  0.93115000  1
  O  O36  1  0.00000000  0.17164000  0.81736000  1
  O  O37  1  0.49837300  0.17518600  0.69979600  1
  O  O38  1  0.99666600  0.14419400  0.56932400  1
  O  O39  1  0.30253000  0.67164000  0.00000000  1
  O  O40  1  0.80253000  0.67164000  0.88621000  1
  O  O41  1  0.30253000  0.67164000  0.77241000  1
  O  O42  1  0.79908200  0.65547400  0.66183900  1
  O  O43  1  0.32427800  0.65841500  0.54321200  1
  O  O44  1  0.69747000  0.67164000  0.00000000  1
  O  O45  1  0.19747000  0.67164000  0.88621000  1
  O  O46  1  0.69747000  0.67164000  0.77241000  1
  O  O47  1  0.19877500  0.65769100  0.66112200  1
  O  O48  1  0.68512400  0.65889700  0.54233000  1
  O  O49  1  0.30253000  0.32836000  0.00000000  1
  O  O50  1  0.80253000  0.32836000  0.88621000  1
  O  O51  1  0.30253000  0.32836000  0.77241000  1
  O  O52  1  0.80647900  0.34605300  0.65866000  1
  O  O53  1  0.25516600  0.36163900  0.53694600  1
  O  O54  1  0.69747000  0.32836000  0.00000000  1
  O  O55  1  0.19747000  0.32836000  0.88621000  1
  O  O56  1  0.69747000  0.32836000  0.77241000  1
  O  O57  1  0.19913400  0.35177300  0.65908900  1
  O  O58  1  0.75250100  0.36457100  0.53666000  1
  O  O59  1  0.00000000  0.82836000  0.95506000  1
  O  O60  1  0.50000000  0.82836000  0.84126000  1
  O  O61  1  0.99978400  0.84468700  0.72933600  1
  O  O62  1  0.50171100  0.82502700  0.61587800  1
  O  O63  1  0.50000000  0.82836000  0.93115000  1
  O  O64  1  0.00000000  0.82836000  0.81736000  1
  O  O65  1  0.50251600  0.83204600  0.70409700  1
  O  O66  1  0.00466800  0.81502900  0.56616200  1
  O  O67  1  0.00000000  0.50000000  0.95668000  1
  O  O68  1  0.50000000  0.50000000  0.84289000  1
  O  O69  1  0.99950800  0.49998000  0.72830400  1
  O  O70  1  0.50190400  0.49495700  0.60851800  1
  O  O71  1  0.50000000  0.50000000  0.92952000  1
  O  O72  1  0.00000000  0.50000000  0.81573000  1
  O  O73  1  0.50218600  0.49673300  0.70465400  1
  O  O74  1  0.00607900  0.50350600  0.58797200  1
  O  O75  1  0.30966000  0.00000000  0.00000000  1
  O  O76  1  0.80966000  0.00000000  0.88621000  1
  O  O77  1  0.30966000  0.00000000  0.77241000  1
  O  O78  1  0.78902200  0.00040900  0.66595800  1
  O  O79  1  0.31435000  0.97199200  0.54205000  1
  O  O80  1  0.69034000  0.00000000  0.00000000  1
  O  O81  1  0.19034000  0.00000000  0.88621000  1
  O  O82  1  0.69034000  0.00000000  0.77241000  1
  O  O83  1  0.20979700  0.99297600  0.66708900  1
  O  O84  1  0.69080700  0.97143600  0.54266700  1
