# generated using pymatgen
data_MgTiMnVZnCrFeCoCuNiSb20ClO54
_symmetry_space_group_name_H-M   'P 1'
_cell_length_a   6.65977600
_cell_length_b   9.54647700
_cell_length_c   28.61146900
_cell_angle_alpha   89.68142900
_cell_angle_beta   89.95824100
_cell_angle_gamma   89.99476300
_symmetry_Int_Tables_number   1
_chemical_formula_structural   MgTiMnVZnCrFeCoCuNiSb20ClO54
_chemical_formula_sum
'Mg1 Ti1 Mn1 V1 Zn1 Cr1 Fe1 Co1 Cu1 Ni1 Sb20 Cl1 O54'
_cell_volume   1819.01415597
_cell_formula_units_Z   1
loop_
 _symmetry_equiv_pos_site_id
 _symmetry_equiv_pos_as_xyz
  1  'x, y, z'
loop_
 _atom_site_type_symbol
 _atom_site_label
 _atom_site_symmetry_multiplicity
 _atom_site_fract_x
 _atom_site_fract_y
 _atom_site_fract_z
 _atom_site_occupancy
  Mg  Mg0  1  0.50101300  0.66783600  0.65878200  1
  Ti  Ti1  1  0.50000000  0.33232000  0.88621000  1
  Mn  Mn2  1  0.50000000  0.66768000  0.88621000  1
  V  V3  1  0.00137200  0.65740400  0.56016300  1
  Zn  Zn4  1  1.00000000  0.66768000  0.77241000  1
  Cr  Cr5  1  0.50077400  0.49926000  0.54514600  1
  Fe  Fe6  1  1.00000000  0.16768000  0.88621000  1
  Co  Co7  1  1.00000000  0.33232000  0.77241000  1
  Cu  Cu8  1  0.50000000  0.16768000  0.77241000  1
  Ni  Ni9  1  1.00000000  0.66768000  0.00000000  1
  Sb  Sb10  1  0.00000000  0.00000000  0.00000000  1
  Sb  Sb11  1  0.50000000  0.00000000  0.88621000  1
  Sb  Sb12  1  1.00000000  0.00000000  0.77241000  1
  Sb  Sb13  1  0.50064500  0.99619800  0.65606700  1
  Sb  Sb14  1  0.00164300  0.97692700  0.52931200  1
  Sb  Sb15  1  0.50000000  0.50000000  0.00000000  1
  Sb  Sb16  1  1.00000000  0.50000000  0.88621000  1
  Sb  Sb17  1  0.50000000  0.50000000  0.77241000  1
  Sb  Sb18  1  0.00134100  0.50730200  0.66283500  1
  Sb  Sb19  1  0.00000000  0.33232000  0.00000000  1
  Sb  Sb20  1  0.50104100  0.34482800  0.65583600  1
  Sb  Sb21  1  0.00117900  0.36185700  0.53041300  1
  Sb  Sb22  1  0.50000000  0.83232000  0.00000000  1
  Sb  Sb23  1  1.00000000  0.83232000  0.88621000  1
  Sb  Sb24  1  0.50000000  0.83232000  0.77241000  1
  Sb  Sb25  1  0.00060500  0.82894200  0.66044500  1
  Sb  Sb26  1  0.50193800  0.83343700  0.54236300  1
  Sb  Sb27  1  0.50000000  0.16768000  0.00000000  1
  Sb  Sb28  1  0.00098200  0.17026800  0.65714400  1
  Sb  Sb29  1  0.50130600  0.18799800  0.53541500  1
  Cl  Cl30  1  0.50084700  0.46640300  0.46626700  1
  O  O31  1  1.00000000  0.17164000  0.95506000  1
  O  O32  1  0.50000000  0.17164000  0.84126000  1
  O  O33  1  0.99980400  0.15525700  0.72934800  1
  O  O34  1  0.50146400  0.16809900  0.60985600  1
  O  O35  1  0.50000000  0.17164000  0.93115000  1
  O  O36  1  1.00000000  0.17164000  0.81736000  1
  O  O37  1  0.50006300  0.16737500  0.69743800  1
  O  O38  1  0.00110300  0.16807800  0.55524800  1
  O  O39  1  0.30253000  0.67164000  0.00000000  1
  O  O40  1  0.80253000  0.67164000  0.88621000  1
  O  O41  1  0.30253000  0.67164000  0.77241000  1
  O  O42  1  0.80892300  0.67034400  0.65611800  1
  O  O43  1  0.23873800  0.63701800  0.53576500  1
  O  O44  1  0.69747000  0.67164000  0.00000000  1
  O  O45  1  0.19747000  0.67164000  0.88621000  1
  O  O46  1  0.69747000  0.67164000  0.77241000  1
  O  O47  1  0.19327700  0.67072800  0.65654900  1
  O  O48  1  0.76349400  0.63729700  0.53590600  1
  O  O49  1  0.30253000  0.32836000  0.00000000  1
  O  O50  1  0.80253000  0.32836000  0.88621000  1
  O  O51  1  0.30253000  0.32836000  0.77241000  1
  O  O52  1  0.80088800  0.34705700  0.66040900  1
  O  O53  1  0.30590700  0.35172500  0.55294900  1
  O  O54  1  0.69747000  0.32836000  0.00000000  1
  O  O55  1  0.19747000  0.32836000  0.88621000  1
  O  O56  1  0.69747000  0.32836000  0.77241000  1
  O  O57  1  0.20146400  0.34733500  0.66070200  1
  O  O58  1  0.69604800  0.35205900  0.55289000  1
  O  O59  1  1.00000000  0.82836000  0.95506000  1
  O  O60  1  0.50000000  0.82836000  0.84126000  1
  O  O61  1  0.99978400  0.84468700  0.72933600  1
  O  O62  1  0.50023000  0.83096200  0.61236200  1
  O  O63  1  0.50000000  0.82836000  0.93115000  1
  O  O64  1  1.00000000  0.82836000  0.81736000  1
  O  O65  1  0.50239500  0.83836900  0.70198800  1
  O  O66  1  0.00158900  0.83283500  0.58806100  1
  O  O67  1  1.00000000  0.50000000  0.95668000  1
  O  O68  1  0.50000000  0.50000000  0.84289000  1
  O  O69  1  0.99950800  0.49998000  0.72830400  1
  O  O70  1  0.50093900  0.50826200  0.61276900  1
  O  O71  1  0.50000000  0.50000000  0.92952000  1
  O  O72  1  1.00000000  0.50000000  0.81573000  1
  O  O73  1  0.50104900  0.50059700  0.70237700  1
  O  O74  1  0.00194900  0.49180500  0.59256400  1
  O  O75  1  0.30966000  0.00000000  0.00000000  1
  O  O76  1  0.80966000  0.00000000  0.88621000  1
  O  O77  1  0.30966000  0.00000000  0.77241000  1
  O  O78  1  0.80126200  0.98565400  0.65654800  1
  O  O79  1  0.30205000  0.99304000  0.54801700  1
  O  O80  1  0.69034000  0.00000000  0.00000000  1
  O  O81  1  0.19034000  0.00000000  0.88621000  1
  O  O82  1  0.69034000  0.00000000  0.77241000  1
  O  O83  1  0.20066500  0.98527800  0.65686900  1
  O  O84  1  0.70198700  0.99281000  0.54817400  1
