# generated using pymatgen
data_MgTiMnVZnCrFeCoCuNiSb20ClO54
_symmetry_space_group_name_H-M   'P 1'
_cell_length_a   6.72972200
_cell_length_b   9.43953000
_cell_length_c   28.80477300
_cell_angle_alpha   90.05672900
_cell_angle_beta   89.95470400
_cell_angle_gamma   89.80257500
_symmetry_Int_Tables_number   1
_chemical_formula_structural   MgTiMnVZnCrFeCoCuNiSb20ClO54
_chemical_formula_sum
'Mg1 Ti1 Mn1 V1 Zn1 Cr1 Fe1 Co1 Cu1 Ni1 Sb20 Cl1 O54'
_cell_volume   1829.82275643
_cell_formula_units_Z   1
loop_
 _symmetry_equiv_pos_site_id
 _symmetry_equiv_pos_as_xyz
  1  'x, y, z'
loop_
 _atom_site_type_symbol
 _atom_site_label
 _atom_site_symmetry_multiplicity
 _atom_site_fract_x
 _atom_site_fract_y
 _atom_site_fract_z
 _atom_site_occupancy
  Mg  Mg0  1  0.99733600  0.83115600  0.66073100  1
  Ti  Ti1  1  0.00000000  0.50000000  0.88621000  1
  Mn  Mn2  1  0.50000000  0.16768000  1.00000000  1
  V  V3  1  0.48376200  0.82923900  0.54440100  1
  Zn  Zn4  1  0.00000000  0.66768000  0.77241000  1
  Cr  Cr5  1  0.51924400  0.50028100  0.53750800  1
  Fe  Fe6  1  0.00000000  0.83232000  0.88621000  1
  Co  Co7  1  0.53714800  0.18702800  0.54356500  1
  Cu  Cu8  1  0.50000000  0.66768000  0.88621000  1
  Ni  Ni9  1  0.50000000  0.33232000  0.88621000  1
  Sb  Sb10  1  0.00000000  0.00000000  0.00000000  1
  Sb  Sb11  1  0.50000000  1.00000000  0.88621000  1
  Sb  Sb12  1  0.00000000  1.00000000  0.77241000  1
  Sb  Sb13  1  0.49724800  0.00293700  0.65519300  1
  Sb  Sb14  1  0.96061900  0.97238600  0.51998000  1
  Sb  Sb15  1  0.50000000  0.50000000  1.00000000  1
  Sb  Sb16  1  0.50000000  0.50000000  0.77241000  1
  Sb  Sb17  1  0.99799900  0.50264500  0.65765100  1
  Sb  Sb18  1  0.00000000  0.33232000  0.00000000  1
  Sb  Sb19  1  0.00000000  0.33232000  0.77241000  1
  Sb  Sb20  1  0.49767900  0.33723700  0.65213800  1
  Sb  Sb21  1  0.02951000  0.33850200  0.52498800  1
  Sb  Sb22  1  0.50000000  0.83232000  1.00000000  1
  Sb  Sb23  1  0.50000000  0.83232000  0.77241000  1
  Sb  Sb24  1  0.00000000  0.16768000  0.88621000  1
  Sb  Sb25  1  0.50000000  0.16768000  0.77241000  1
  Sb  Sb26  1  0.99659900  0.14986500  0.63902900  1
  Sb  Sb27  1  0.00000000  0.66768000  0.00000000  1
  Sb  Sb28  1  0.49666100  0.66586100  0.65277500  1
  Sb  Sb29  1  0.00006200  0.65925100  0.53854200  1
  Cl  Cl30  1  0.51698000  0.51124200  0.46022300  1
  O  O31  1  0.00000000  0.17164000  0.95506000  1
  O  O32  1  0.50000000  0.17164000  0.84126000  1
  O  O33  1  0.99980400  0.15525700  0.72934800  1
  O  O34  1  0.50111900  0.16592000  0.61065500  1
  O  O35  1  0.50000000  0.17164000  0.93115000  1
  O  O36  1  1.00000000  0.17164000  0.81736000  1
  O  O37  1  0.49881900  0.17184800  0.70020000  1
  O  O38  1  0.02369600  0.14505400  0.55797800  1
  O  O39  1  0.30253000  0.67164000  1.00000000  1
  O  O40  1  0.80253000  0.67164000  0.88621000  1
  O  O41  1  0.30253000  0.67164000  0.77241000  1
  O  O42  1  0.80573600  0.66144600  0.65393200  1
  O  O43  1  0.33585700  0.66497200  0.54449900  1
  O  O44  1  0.69747000  0.67164000  1.00000000  1
  O  O45  1  0.19747000  0.67164000  0.88621000  1
  O  O46  1  0.69747000  0.67164000  0.77241000  1
  O  O47  1  0.18973400  0.66147800  0.65450100  1
  O  O48  1  0.68805700  0.67934900  0.54039200  1
  O  O49  1  0.30253000  0.32836000  1.00000000  1
  O  O50  1  0.80253000  0.32836000  0.88621000  1
  O  O51  1  0.30253000  0.32836000  0.77241000  1
  O  O52  1  0.79519200  0.34290300  0.65989100  1
  O  O53  1  0.33545300  0.33557500  0.54001900  1
  O  O54  1  0.69747000  0.32836000  1.00000000  1
  O  O55  1  0.19747000  0.32836000  0.88621000  1
  O  O56  1  0.69747000  0.32836000  0.77241000  1
  O  O57  1  0.19976300  0.34023600  0.65870000  1
  O  O58  1  0.71848000  0.34562700  0.53998000  1
  O  O59  1  0.00000000  0.82836000  0.95506000  1
  O  O60  1  0.50000000  0.82836000  0.84126000  1
  O  O61  1  0.99978400  0.84468700  0.72933600  1
  O  O62  1  0.48791800  0.84731400  0.60750800  1
  O  O63  1  0.50000000  0.82836000  0.93115000  1
  O  O64  1  0.00000000  0.82836000  0.81736000  1
  O  O65  1  0.49751000  0.84579400  0.70228000  1
  O  O66  1  0.99293900  0.83961100  0.57577500  1
  O  O67  1  0.00000000  0.50000000  0.95668000  1
  O  O68  1  0.50000000  0.50000000  0.84289000  1
  O  O69  1  0.99950800  0.49998000  0.72830400  1
  O  O70  1  0.50435600  0.49542700  0.60795900  1
  O  O71  1  0.50000000  0.50000000  0.92952000  1
  O  O72  1  1.00000000  0.50000000  0.81573000  1
  O  O73  1  0.49456300  0.49273900  0.70138100  1
  O  O74  1  0.01201000  0.49252800  0.58474100  1
  O  O75  1  0.30966000  0.00000000  1.00000000  1
  O  O76  1  0.80966000  1.00000000  0.88621000  1
  O  O77  1  0.30966000  0.00000000  0.77241000  1
  O  O78  1  0.79040300  0.99152000  0.65402300  1
  O  O79  1  0.30239800  0.93245500  0.52347600  1
  O  O80  1  0.69034000  1.00000000  1.00000000  1
  O  O81  1  0.19034000  0.00000000  0.88621000  1
  O  O82  1  0.69034000  1.00000000  0.77241000  1
  O  O83  1  0.20346700  0.99467400  0.65445200  1
  O  O84  1  0.66328100  0.99034100  0.53513100  1
