# generated using pymatgen
data_MgTiMnVZnCrFeCoCuNiSb20ClO54
_symmetry_space_group_name_H-M   'P 1'
_cell_length_a   6.66951700
_cell_length_b   9.61962400
_cell_length_c   29.26989400
_cell_angle_alpha   90.07571100
_cell_angle_beta   89.98118400
_cell_angle_gamma   89.99248400
_symmetry_Int_Tables_number   1
_chemical_formula_structural   MgTiMnVZnCrFeCoCuNiSb20ClO54
_chemical_formula_sum
'Mg1 Ti1 Mn1 V1 Zn1 Cr1 Fe1 Co1 Cu1 Ni1 Sb20 Cl1 O54'
_cell_volume   1877.90329679
_cell_formula_units_Z   1
loop_
 _symmetry_equiv_pos_site_id
 _symmetry_equiv_pos_as_xyz
  1  'x, y, z'
loop_
 _atom_site_type_symbol
 _atom_site_label
 _atom_site_symmetry_multiplicity
 _atom_site_fract_x
 _atom_site_fract_y
 _atom_site_fract_z
 _atom_site_occupancy
  Mg  Mg0  1  0.99875000  0.33614200  0.44392300  1
  Ti  Ti1  1  0.99994500  0.83610700  0.34567700  1
  Mn  Mn2  1  0.50000000  0.50000000  1.00000000  1
  V  V3  1  0.00000000  0.33232000  0.22759000  1
  Zn  Zn4  1  0.50000000  0.66768000  0.11379000  1
  Cr  Cr5  1  0.49905600  0.51531300  0.45756000  1
  Fe  Fe6  1  0.49904300  0.81873300  0.45401500  1
  Co  Co7  1  0.99936400  0.66444300  0.44460800  1
  Cu  Cu8  1  0.50000000  0.16768000  0.22759000  1
  Ni  Ni9  1  0.00000000  0.00000000  0.00000000  1
  Sb  Sb10  1  0.50000000  1.00000000  0.11379000  1
  Sb  Sb11  1  0.00000000  1.00000000  0.22759000  1
  Sb  Sb12  1  0.49989900  0.00315300  0.34406900  1
  Sb  Sb13  1  0.99904700  0.96997200  0.46294000  1
  Sb  Sb14  1  0.00000000  0.50000000  0.11379000  1
  Sb  Sb15  1  0.50000000  0.50000000  0.22759000  1
  Sb  Sb16  1  0.99979600  0.50876100  0.34096400  1
  Sb  Sb17  1  1.00000000  0.33232000  1.00000000  1
  Sb  Sb18  1  0.50000000  0.33232000  0.11379000  1
  Sb  Sb19  1  0.49974800  0.33723000  0.34477100  1
  Sb  Sb20  1  0.50000000  0.83232000  1.00000000  1
  Sb  Sb21  1  0.00000000  0.83232000  0.11379000  1
  Sb  Sb22  1  0.50000000  0.83232000  0.22759000  1
  Sb  Sb23  1  0.50000000  0.16768000  1.00000000  1
  Sb  Sb24  1  0.00000000  0.16768000  0.11379000  1
  Sb  Sb25  1  0.00003000  0.15706200  0.34481100  1
  Sb  Sb26  1  0.49879500  0.20077000  0.46397100  1
  Sb  Sb27  1  0.00000000  0.66768000  1.00000000  1
  Sb  Sb28  1  0.00000000  0.66768000  0.22759000  1
  Sb  Sb29  1  0.49985200  0.66879800  0.34436900  1
  Cl  Cl30  1  0.49841700  0.50525200  0.53315400  1
  O  O31  1  0.00000000  0.17164000  0.04494000  1
  O  O32  1  0.50000000  0.17164000  0.15874000  1
  O  O33  1  0.00019600  0.15525700  0.27065200  1
  O  O34  1  0.49858800  0.17127500  0.39059200  1
  O  O35  1  0.50000000  0.17164000  0.06885000  1
  O  O36  1  0.00000000  0.17164000  0.18264000  1
  O  O37  1  0.49887500  0.17038400  0.30181500  1
  O  O38  1  0.99777700  0.13903000  0.42422100  1
  O  O39  1  0.69747000  0.67164000  1.00000000  1
  O  O40  1  0.19747000  0.67164000  0.11379000  1
  O  O41  1  0.69747000  0.67164000  0.22759000  1
  O  O42  1  0.19162000  0.67233400  0.33713500  1
  O  O43  1  0.69416800  0.66972700  0.45459300  1
  O  O44  1  0.30253000  0.67164000  1.00000000  1
  O  O45  1  0.80253000  0.67164000  0.11379000  1
  O  O46  1  0.30253000  0.67164000  0.22759000  1
  O  O47  1  0.80805200  0.67237500  0.33695100  1
  O  O48  1  0.30377400  0.66964200  0.45449300  1
  O  O49  1  0.69747000  0.32836000  1.00000000  1
  O  O50  1  0.19747000  0.32836000  0.11379000  1
  O  O51  1  0.69747000  0.32836000  0.22759000  1
  O  O52  1  0.19966000  0.35138600  0.33968100  1
  O  O53  1  0.69841700  0.35533900  0.45404500  1
  O  O54  1  0.30253000  0.32836000  1.00000000  1
  O  O55  1  0.80253000  0.32836000  0.11379000  1
  O  O56  1  0.30253000  0.32836000  0.22759000  1
  O  O57  1  0.79985100  0.35120900  0.33941100  1
  O  O58  1  0.29905400  0.35525400  0.45394700  1
  O  O59  1  1.00000000  0.82836000  0.04494000  1
  O  O60  1  0.50000000  0.82836000  0.15874000  1
  O  O61  1  0.00021600  0.84468700  0.27066400  1
  O  O62  1  0.49961800  0.83217600  0.38515700  1
  O  O63  1  0.50000000  0.82836000  0.06885000  1
  O  O64  1  0.00000000  0.82836000  0.18264000  1
  O  O65  1  0.49988900  0.83095500  0.29727300  1
  O  O66  1  0.99967800  0.83444400  0.40786300  1
  O  O67  1  0.00000000  0.50000000  0.04332000  1
  O  O68  1  0.50000000  0.50000000  0.15711000  1
  O  O69  1  0.00049200  0.49998000  0.27169600  1
  O  O70  1  0.49996800  0.50683600  0.38742500  1
  O  O71  1  0.50000000  0.50000000  0.07048000  1
  O  O72  1  0.00000000  0.50000000  0.18427000  1
  O  O73  1  0.49865200  0.50673900  0.29836300  1
  O  O74  1  0.99808300  0.50661500  0.40686600  1
  O  O75  1  0.69034000  0.00000000  0.00000000  1
  O  O76  1  0.19034000  1.00000000  0.11379000  1
  O  O77  1  0.69034000  1.00000000  0.22759000  1
  O  O78  1  0.19550500  0.98079700  0.34059400  1
  O  O79  1  0.68525800  0.95303800  0.45763100  1
  O  O80  1  0.30966000  0.00000000  0.00000000  1
  O  O81  1  0.80966000  1.00000000  0.11379000  1
  O  O82  1  0.30966000  1.00000000  0.22759000  1
  O  O83  1  0.80434500  0.98106700  0.34052200  1
  O  O84  1  0.31277100  0.95338500  0.45762400  1
