# generated using pymatgen
data_MgTiMnVZnCrFeCoCuNiSb20ClO54
_symmetry_space_group_name_H-M   'P 1'
_cell_length_a   6.66341200
_cell_length_b   9.46018500
_cell_length_c   28.72540300
_cell_angle_alpha   89.46785600
_cell_angle_beta   89.93097700
_cell_angle_gamma   89.98170000
_symmetry_Int_Tables_number   1
_chemical_formula_structural   MgTiMnVZnCrFeCoCuNiSb20ClO54
_chemical_formula_sum
'Mg1 Ti1 Mn1 V1 Zn1 Cr1 Fe1 Co1 Cu1 Ni1 Sb20 Cl1 O54'
_cell_volume   1810.68689759
_cell_formula_units_Z   1
loop_
 _symmetry_equiv_pos_site_id
 _symmetry_equiv_pos_as_xyz
  1  'x, y, z'
loop_
 _atom_site_type_symbol
 _atom_site_label
 _atom_site_symmetry_multiplicity
 _atom_site_fract_x
 _atom_site_fract_y
 _atom_site_fract_z
 _atom_site_occupancy
  Mg  Mg0  1  1.00000000  0.66768000  0.00000000  1
  Ti  Ti1  1  0.50050800  0.17015800  0.45080000  1
  Mn  Mn2  1  0.00000000  0.83232000  0.11379000  1
  V  V3  1  0.50000000  1.00000000  0.11379000  1
  Zn  Zn4  1  0.50000000  0.33232000  0.11379000  1
  Cr  Cr5  1  0.50264000  0.48820300  0.45786400  1
  Fe  Fe6  1  0.99942800  0.83529100  0.33668200  1
  Co  Co7  1  0.50000000  0.50000000  0.22759000  1
  Cu  Cu8  1  0.00000000  0.00000000  0.22759000  1
  Ni  Ni9  1  0.50000000  0.16768000  0.00000000  1
  Sb  Sb10  1  0.00000000  0.00000000  0.00000000  1
  Sb  Sb11  1  0.49934000  0.99408100  0.34545300  1
  Sb  Sb12  1  0.00287200  0.99747400  0.46323800  1
  Sb  Sb13  1  0.50000000  0.50000000  0.00000000  1
  Sb  Sb14  1  0.00000000  0.50000000  0.11379000  1
  Sb  Sb15  1  0.99940500  0.51106600  0.35044400  1
  Sb  Sb16  1  0.50000000  0.66768000  0.11379000  1
  Sb  Sb17  1  0.00000000  0.66768000  0.22759000  1
  Sb  Sb18  1  0.49987100  0.66362000  0.34748800  1
  Sb  Sb19  1  0.00044700  0.66566900  0.46771300  1
  Sb  Sb20  1  0.00000000  0.16768000  0.11379000  1
  Sb  Sb21  1  0.50000000  0.16768000  0.22759000  1
  Sb  Sb22  1  0.99985300  0.15854800  0.34130200  1
  Sb  Sb23  1  0.50000000  0.83232000  0.00000000  1
  Sb  Sb24  1  0.50000000  0.83232000  0.22759000  1
  Sb  Sb25  1  0.50459300  0.81212800  0.46771900  1
  Sb  Sb26  1  0.00000000  0.33232000  0.00000000  1
  Sb  Sb27  1  0.00000000  0.33232000  0.22759000  1
  Sb  Sb28  1  0.49899400  0.33582200  0.33904800  1
  Sb  Sb29  1  0.00036200  0.32007200  0.47066000  1
  Cl  Cl30  1  0.51560200  0.52273300  0.53564800  1
  O  O31  1  0.00000000  0.82836000  0.04494000  1
  O  O32  1  0.50000000  0.82836000  0.15874000  1
  O  O33  1  0.99980400  0.84474300  0.27065200  1
  O  O34  1  0.49929200  0.83252600  0.39262400  1
  O  O35  1  0.50000000  0.82836000  0.06885000  1
  O  O36  1  0.00000000  0.82836000  0.18264000  1
  O  O37  1  0.49980900  0.82924000  0.29961200  1
  O  O38  1  0.00116500  0.83014900  0.41981700  1
  O  O39  1  0.30253000  0.32836000  0.00000000  1
  O  O40  1  0.80253000  0.32836000  0.11379000  1
  O  O41  1  0.30253000  0.32836000  0.22759000  1
  O  O42  1  0.79632600  0.31980100  0.34015500  1
  O  O43  1  0.31597100  0.32361800  0.46092700  1
  O  O44  1  0.69747000  0.32836000  0.00000000  1
  O  O45  1  0.19747000  0.32836000  0.11379000  1
  O  O46  1  0.69747000  0.32836000  0.22759000  1
  O  O47  1  0.20130900  0.32149000  0.33883800  1
  O  O48  1  0.68709500  0.32397400  0.45831400  1
  O  O49  1  0.30253000  0.67164000  0.00000000  1
  O  O50  1  0.80253000  0.67164000  0.11379000  1
  O  O51  1  0.30253000  0.67164000  0.22759000  1
  O  O52  1  0.79789800  0.68021200  0.34323400  1
  O  O53  1  0.31081500  0.65005500  0.45031300  1
  O  O54  1  0.69747000  0.67164000  0.00000000  1
  O  O55  1  0.19747000  0.67164000  0.11379000  1
  O  O56  1  0.69747000  0.67164000  0.22759000  1
  O  O57  1  0.20128700  0.67924300  0.34352000  1
  O  O58  1  0.69441200  0.64806900  0.44773800  1
  O  O59  1  0.00000000  0.17164000  0.04494000  1
  O  O60  1  0.50000000  0.17164000  0.15874000  1
  O  O61  1  0.99978400  0.15531300  0.27066400  1
  O  O62  1  0.49464100  0.17261700  0.38512000  1
  O  O63  1  0.50000000  0.17164000  0.06885000  1
  O  O64  1  0.00000000  0.17164000  0.18264000  1
  O  O65  1  0.49968400  0.16291700  0.29778500  1
  O  O66  1  0.00457000  0.16824100  0.41570100  1
  O  O67  1  1.00000000  0.50000000  0.04332000  1
  O  O68  1  0.50000000  0.50000000  0.15711000  1
  O  O69  1  0.99950800  0.50002000  0.27169600  1
  O  O70  1  0.49760500  0.48582400  0.38782800  1
  O  O71  1  0.50000000  0.50000000  0.07048000  1
  O  O72  1  0.00000000  0.50000000  0.18427000  1
  O  O73  1  0.50057300  0.50576100  0.29741800  1
  O  O74  1  0.00675700  0.48958700  0.42691200  1
  O  O75  1  0.30966000  1.00000000  0.00000000  1
  O  O76  1  0.80966000  1.00000000  0.11379000  1
  O  O77  1  0.30966000  1.00000000  0.22759000  1
  O  O78  1  0.80188600  0.99814200  0.34579000  1
  O  O79  1  0.31359900  0.02021000  0.45658500  1
  O  O80  1  0.69034000  1.00000000  1.00000000  1
  O  O81  1  0.19034000  1.00000000  0.11379000  1
  O  O82  1  0.69034000  1.00000000  0.22759000  1
  O  O83  1  0.19652900  0.99698500  0.34502300  1
  O  O84  1  0.69226800  0.02565500  0.45678300  1
