# generated using pymatgen
data_MgTiMnVZnCrFeCoCuNiSb20ClO54
_symmetry_space_group_name_H-M   'P 1'
_cell_length_a   6.66682300
_cell_length_b   9.60683800
_cell_length_c   29.81760700
_cell_angle_alpha   90.08704100
_cell_angle_beta   89.99425500
_cell_angle_gamma   89.99500000
_symmetry_Int_Tables_number   1
_chemical_formula_structural   MgTiMnVZnCrFeCoCuNiSb20ClO54
_chemical_formula_sum
'Mg1 Ti1 Mn1 V1 Zn1 Cr1 Fe1 Co1 Cu1 Ni1 Sb20 Cl1 O54'
_cell_volume   1909.72869489
_cell_formula_units_Z   1
loop_
 _symmetry_equiv_pos_site_id
 _symmetry_equiv_pos_as_xyz
  1  'x, y, z'
loop_
 _atom_site_type_symbol
 _atom_site_label
 _atom_site_symmetry_multiplicity
 _atom_site_fract_x
 _atom_site_fract_y
 _atom_site_fract_z
 _atom_site_occupancy
  Mg  Mg0  1  0.00296100  0.00359400  0.56200000  1
  Ti  Ti1  1  0.50000000  0.50000000  0.77241000  1
  Mn  Mn2  1  0.50000000  0.83232000  0.77241000  1
  V  V3  1  0.50000000  0.50000000  1.00000000  1
  Zn  Zn4  1  0.00129700  0.33122100  0.55932000  1
  Cr  Cr5  1  0.50091200  0.49466300  0.55197500  1
  Fe  Fe6  1  0.50000000  0.16768000  1.00000000  1
  Co  Co7  1  0.00000000  0.66768000  1.00000000  1
  Cu  Cu8  1  0.99955700  0.83932800  0.65826400  1
  Ni  Ni9  1  0.49991600  0.99941300  0.66299000  1
  Sb  Sb10  1  0.00000000  0.00000000  0.00000000  1
  Sb  Sb11  1  0.50000000  0.00000000  0.88621000  1
  Sb  Sb12  1  0.00000000  0.00000000  0.77241000  1
  Sb  Sb13  1  0.00000000  0.50000000  0.88621000  1
  Sb  Sb14  1  0.00007800  0.50722800  0.65938900  1
  Sb  Sb15  1  0.00000000  0.33232000  1.00000000  1
  Sb  Sb16  1  0.50000000  0.33232000  0.88621000  1
  Sb  Sb17  1  0.00000000  0.33232000  0.77241000  1
  Sb  Sb18  1  0.49921400  0.33191600  0.66308000  1
  Sb  Sb19  1  0.50000000  0.83232000  1.00000000  1
  Sb  Sb20  1  1.00000000  0.83232000  0.88621000  1
  Sb  Sb21  1  0.50231800  0.81917700  0.55000200  1
  Sb  Sb22  1  0.00000000  0.16768000  0.88621000  1
  Sb  Sb23  1  0.50000000  0.16768000  0.77241000  1
  Sb  Sb24  1  0.00031300  0.14772200  0.65942400  1
  Sb  Sb25  1  0.50276500  0.17284500  0.55464900  1
  Sb  Sb26  1  0.50000000  0.66768000  0.88621000  1
  Sb  Sb27  1  0.00000000  0.66768000  0.77241000  1
  Sb  Sb28  1  0.49950600  0.67669500  0.66141300  1
  Sb  Sb29  1  0.00039100  0.65759300  0.54711500  1
  Cl  Cl30  1  0.50468900  0.52575400  0.47808400  1
  O  O31  1  0.00000000  0.17164000  0.95506000  1
  O  O32  1  0.50000000  0.17164000  0.84126000  1
  O  O33  1  0.99980400  0.15525700  0.72934800  1
  O  O34  1  0.49877800  0.16987300  0.62140900  1
  O  O35  1  0.50000000  0.17164000  0.93115000  1
  O  O36  1  0.00000000  0.17164000  0.81736000  1
  O  O37  1  0.50114500  0.17069200  0.70550500  1
  O  O38  1  0.00575000  0.17189800  0.59592000  1
  O  O39  1  0.30253000  0.67164000  1.00000000  1
  O  O40  1  0.80253000  0.67164000  0.88621000  1
  O  O41  1  0.30253000  0.67164000  0.77241000  1
  O  O42  1  0.80232600  0.66280100  0.66366100  1
  O  O43  1  0.31371300  0.64453300  0.56041700  1
  O  O44  1  0.69747000  0.67164000  1.00000000  1
  O  O45  1  0.19747000  0.67164000  0.88621000  1
  O  O46  1  0.69747000  0.67164000  0.77241000  1
  O  O47  1  0.19676600  0.66364800  0.66418800  1
  O  O48  1  0.68641400  0.64051600  0.56199100  1
  O  O49  1  0.30253000  0.32836000  1.00000000  1
  O  O50  1  0.80253000  0.32836000  0.88621000  1
  O  O51  1  0.30253000  0.32836000  0.77241000  1
  O  O52  1  0.80922800  0.33233000  0.66480800  1
  O  O53  1  0.30913100  0.33475800  0.54883900  1
  O  O54  1  0.69747000  0.32836000  1.00000000  1
  O  O55  1  0.19747000  0.32836000  0.88621000  1
  O  O56  1  0.69747000  0.32836000  0.77241000  1
  O  O57  1  0.18962900  0.33179700  0.66600500  1
  O  O58  1  0.69530200  0.33606200  0.54970900  1
  O  O59  1  0.00000000  0.82836000  0.95506000  1
  O  O60  1  0.50000000  0.82836000  0.84126000  1
  O  O61  1  0.99978400  0.84468700  0.72933600  1
  O  O62  1  0.49912400  0.83717400  0.61827200  1
  O  O63  1  0.50000000  0.82836000  0.93115000  1
  O  O64  1  0.00000000  0.82836000  0.81736000  1
  O  O65  1  0.50085600  0.83126900  0.70594100  1
  O  O66  1  0.99803200  0.81887700  0.58626500  1
  O  O67  1  0.00000000  0.50000000  0.95668000  1
  O  O68  1  0.50000000  0.50000000  0.84289000  1
  O  O69  1  0.99950800  0.49998000  0.72830400  1
  O  O70  1  0.49345000  0.49223300  0.62163500  1
  O  O71  1  0.50000000  0.50000000  0.92952000  1
  O  O72  1  0.00000000  0.50000000  0.81573000  1
  O  O73  1  0.50075600  0.49533800  0.70775900  1
  O  O74  1  0.00366100  0.50231200  0.59389500  1
  O  O75  1  0.30966000  1.00000000  1.00000000  1
  O  O76  1  0.80966000  0.00000000  0.88621000  1
  O  O77  1  0.30966000  1.00000000  0.77241000  1
  O  O78  1  0.79858600  0.99885300  0.66044700  1
  O  O79  1  0.30141300  0.02366900  0.54486400  1
  O  O80  1  0.69034000  0.00000000  0.00000000  1
  O  O81  1  0.19034000  1.00000000  0.88621000  1
  O  O82  1  0.69034000  0.00000000  0.77241000  1
  O  O83  1  0.20116700  0.99809400  0.66138500  1
  O  O84  1  0.70639000  0.02705800  0.54430900  1
