# generated using pymatgen
data_MgTiMnVZnCrFeCoCuNiSb20ClO54
_symmetry_space_group_name_H-M   'P 1'
_cell_length_a   6.64150300
_cell_length_b   9.62305200
_cell_length_c   29.75441900
_cell_angle_alpha   89.88213900
_cell_angle_beta   89.85754900
_cell_angle_gamma   90.63345600
_symmetry_Int_Tables_number   1
_chemical_formula_structural   MgTiMnVZnCrFeCoCuNiSb20ClO54
_chemical_formula_sum
'Mg1 Ti1 Mn1 V1 Zn1 Cr1 Fe1 Co1 Cu1 Ni1 Sb20 Cl1 O54'
_cell_volume   1901.52417488
_cell_formula_units_Z   1
loop_
 _symmetry_equiv_pos_site_id
 _symmetry_equiv_pos_as_xyz
  1  'x, y, z'
loop_
 _atom_site_type_symbol
 _atom_site_label
 _atom_site_symmetry_multiplicity
 _atom_site_fract_x
 _atom_site_fract_y
 _atom_site_fract_z
 _atom_site_occupancy
  Mg  Mg0  1  0.00000000  0.33232000  0.22759000  1
  Ti  Ti1  1  0.96956700  0.33866700  0.44222200  1
  Mn  Mn2  1  1.00000000  0.66768000  0.22759000  1
  V  V3  1  0.99314200  0.16752300  0.33317800  1
  Zn  Zn4  1  0.99818100  0.82615800  0.33510500  1
  Cr  Cr5  1  0.48994500  0.49386900  0.45433000  1
  Fe  Fe6  1  0.50000000  0.83232000  0.00000000  1
  Co  Co7  1  0.44768500  0.20605300  0.44899400  1
  Cu  Cu8  1  0.50000000  0.50000000  0.00000000  1
  Ni  Ni9  1  0.50000000  0.16768000  0.00000000  1
  Sb  Sb10  1  0.00000000  0.00000000  0.00000000  1
  Sb  Sb11  1  0.50000000  1.00000000  0.11379000  1
  Sb  Sb12  1  1.00000000  0.00000000  0.22759000  1
  Sb  Sb13  1  0.50368500  0.99950300  0.34728400  1
  Sb  Sb14  1  0.01950400  0.99914600  0.41849800  1
  Sb  Sb15  1  0.00000000  0.50000000  0.11379000  1
  Sb  Sb16  1  0.50000000  0.50000000  0.22759000  1
  Sb  Sb17  1  0.99787100  0.50023800  0.33567600  1
  Sb  Sb18  1  1.00000000  0.66768000  0.00000000  1
  Sb  Sb19  1  0.50000000  0.66768000  0.11379000  1
  Sb  Sb20  1  0.49940400  0.66057700  0.34635500  1
  Sb  Sb21  1  0.01362300  0.65610500  0.45483200  1
  Sb  Sb22  1  0.00000000  0.16768000  0.11379000  1
  Sb  Sb23  1  0.50000000  0.16768000  0.22759000  1
  Sb  Sb24  1  0.00000000  0.83232000  0.11379000  1
  Sb  Sb25  1  0.50000000  0.83232000  0.22759000  1
  Sb  Sb26  1  0.52571900  0.81536900  0.46008000  1
  Sb  Sb27  1  0.00000000  0.33232000  0.00000000  1
  Sb  Sb28  1  0.50000000  0.33232000  0.11379000  1
  Sb  Sb29  1  0.49690200  0.33122800  0.34008100  1
  Cl  Cl30  1  0.48657800  0.55096900  0.52743100  1
  O  O31  1  1.00000000  0.82836000  0.04494000  1
  O  O32  1  0.50000000  0.82836000  0.15874000  1
  O  O33  1  0.99980400  0.84474300  0.27065200  1
  O  O34  1  0.50719000  0.82666900  0.38920400  1
  O  O35  1  0.50000000  0.82836000  0.06885000  1
  O  O36  1  1.00000000  0.82836000  0.18264000  1
  O  O37  1  0.49987200  0.82453800  0.29987500  1
  O  O38  1  0.02577900  0.79905300  0.40605900  1
  O  O39  1  0.30253000  0.32836000  0.00000000  1
  O  O40  1  0.80253000  0.32836000  0.11379000  1
  O  O41  1  0.30253000  0.32836000  0.22759000  1
  O  O42  1  0.80403900  0.33051200  0.33553700  1
  O  O43  1  0.23778600  0.35347500  0.46147000  1
  O  O44  1  0.69747000  0.32836000  0.00000000  1
  O  O45  1  0.19747000  0.32836000  0.11379000  1
  O  O46  1  0.69747000  0.32836000  0.22759000  1
  O  O47  1  0.18801800  0.32932800  0.33785100  1
  O  O48  1  0.69506700  0.33730600  0.45977100  1
  O  O49  1  0.30253000  0.67164000  0.00000000  1
  O  O50  1  0.80253000  0.67164000  0.11379000  1
  O  O51  1  0.30253000  0.67164000  0.22759000  1
  O  O52  1  0.80005600  0.65746200  0.33975400  1
  O  O53  1  0.31839100  0.64818600  0.44101100  1
  O  O54  1  0.69747000  0.67164000  0.00000000  1
  O  O55  1  0.19747000  0.67164000  0.11379000  1
  O  O56  1  0.69747000  0.67164000  0.22759000  1
  O  O57  1  0.19976700  0.65651700  0.33913000  1
  O  O58  1  0.69172400  0.64558000  0.44352000  1
  O  O59  1  0.00000000  0.17164000  0.04494000  1
  O  O60  1  0.50000000  0.17164000  0.15874000  1
  O  O61  1  0.99978400  0.15531300  0.27066400  1
  O  O62  1  0.50575100  0.18306800  0.38689700  1
  O  O63  1  0.50000000  0.17164000  0.06885000  1
  O  O64  1  0.00000000  0.17164000  0.18264000  1
  O  O65  1  0.49649800  0.16687200  0.29616700  1
  O  O66  1  0.97912400  0.19949800  0.40145300  1
  O  O67  1  0.00000000  0.50000000  0.04332000  1
  O  O68  1  0.50000000  0.50000000  0.15711000  1
  O  O69  1  0.99950800  0.50002000  0.27169600  1
  O  O70  1  0.49676600  0.48423900  0.38512100  1
  O  O71  1  0.50000000  0.50000000  0.07048000  1
  O  O72  1  0.00000000  0.50000000  0.18427000  1
  O  O73  1  0.49839000  0.49955900  0.29806000  1
  O  O74  1  0.98629900  0.49760400  0.40631600  1
  O  O75  1  0.30966000  1.00000000  0.00000000  1
  O  O76  1  0.80966000  1.00000000  0.11379000  1
  O  O77  1  0.30966000  1.00000000  0.22759000  1
  O  O78  1  0.81761400  0.00841600  0.35050800  1
  O  O79  1  0.27135600  0.03113500  0.45105000  1
  O  O80  1  0.69034000  0.00000000  0.00000000  1
  O  O81  1  0.19034000  1.00000000  0.11379000  1
  O  O82  1  0.69034000  0.00000000  0.22759000  1
  O  O83  1  0.17350000  0.01254500  0.35494700  1
  O  O84  1  0.77097700  0.97553500  0.45294600  1
