# generated using pymatgen
data_MgTiMnVZnCrFeCoCuNiSb20ClO54
_symmetry_space_group_name_H-M   'P 1'
_cell_length_a   6.72220600
_cell_length_b   9.62604800
_cell_length_c   29.33588100
_cell_angle_alpha   89.48997800
_cell_angle_beta   89.76574000
_cell_angle_gamma   89.88205800
_symmetry_Int_Tables_number   1
_chemical_formula_structural   MgTiMnVZnCrFeCoCuNiSb20ClO54
_chemical_formula_sum
'Mg1 Ti1 Mn1 V1 Zn1 Cr1 Fe1 Co1 Cu1 Ni1 Sb20 Cl1 O54'
_cell_volume   1898.17937812
_cell_formula_units_Z   1
loop_
 _symmetry_equiv_pos_site_id
 _symmetry_equiv_pos_as_xyz
  1  'x, y, z'
loop_
 _atom_site_type_symbol
 _atom_site_label
 _atom_site_symmetry_multiplicity
 _atom_site_fract_x
 _atom_site_fract_y
 _atom_site_fract_z
 _atom_site_occupancy
  Mg  Mg0  1  0.00000000  0.33232000  1.00000000  1
  Ti  Ti1  1  0.50000000  0.50000000  1.00000000  1
  Mn  Mn2  1  0.50000000  0.33232000  0.88621000  1
  V  V3  1  0.95461700  0.66962300  0.55263000  1
  Zn  Zn4  1  0.00590400  0.34613700  0.56180300  1
  Cr  Cr5  1  0.50401500  0.49148400  0.53962000  1
  Fe  Fe6  1  0.00000000  0.33232000  0.77241000  1
  Co  Co7  1  0.56496000  0.85902100  0.55155600  1
  Cu  Cu8  1  0.00494400  0.16695100  0.66117100  1
  Ni  Ni9  1  0.50000000  0.16768000  0.77241000  1
  Sb  Sb10  1  0.00000000  0.00000000  0.00000000  1
  Sb  Sb11  1  0.50000000  0.00000000  0.88621000  1
  Sb  Sb12  1  0.00000000  0.00000000  0.77241000  1
  Sb  Sb13  1  0.50079100  0.01065500  0.65653000  1
  Sb  Sb14  1  0.03707400  0.02862600  0.54064500  1
  Sb  Sb15  1  0.00000000  0.50000000  0.88621000  1
  Sb  Sb16  1  0.50000000  0.50000000  0.77241000  1
  Sb  Sb17  1  0.99855200  0.49787200  0.66119700  1
  Sb  Sb18  1  0.00000000  0.66768000  1.00000000  1
  Sb  Sb19  1  0.50000000  0.66768000  0.88621000  1
  Sb  Sb20  1  0.00000000  0.66768000  0.77241000  1
  Sb  Sb21  1  0.50038700  0.66370300  0.65694300  1
  Sb  Sb22  1  0.50000000  0.16768000  1.00000000  1
  Sb  Sb23  1  0.00000000  0.16768000  0.88621000  1
  Sb  Sb24  1  0.51158900  0.18548500  0.53657000  1
  Sb  Sb25  1  0.50000000  0.83232000  1.00000000  1
  Sb  Sb26  1  0.00000000  0.83232000  0.88621000  1
  Sb  Sb27  1  0.50000000  0.83232000  0.77241000  1
  Sb  Sb28  1  0.99901200  0.85354000  0.65536100  1
  Sb  Sb29  1  0.49972900  0.33625000  0.65406200  1
  Cl  Cl30  1  0.49710800  0.47241200  0.46498500  1
  O  O31  1  0.00000000  0.82836000  0.95506000  1
  O  O32  1  0.50000000  0.82836000  0.84126000  1
  O  O33  1  0.00019600  0.84474300  0.72934800  1
  O  O34  1  0.51613200  0.82741100  0.61652300  1
  O  O35  1  0.50000000  0.82836000  0.93115000  1
  O  O36  1  0.00000000  0.82836000  0.81736000  1
  O  O37  1  0.49844900  0.82822500  0.70316900  1
  O  O38  1  0.00801600  0.83410400  0.57760800  1
  O  O39  1  0.69747000  0.32836000  1.00000000  1
  O  O40  1  0.19747000  0.32836000  0.88621000  1
  O  O41  1  0.69747000  0.32836000  0.77241000  1
  O  O42  1  0.19799600  0.34312500  0.65625000  1
  O  O43  1  0.70188000  0.36222300  0.54892700  1
  O  O44  1  0.30253000  0.32836000  1.00000000  1
  O  O45  1  0.80253000  0.32836000  0.88621000  1
  O  O46  1  0.30253000  0.32836000  0.77241000  1
  O  O47  1  0.80090800  0.34608100  0.65643400  1
  O  O48  1  0.30542800  0.35323400  0.54891300  1
  O  O49  1  0.69747000  0.67164000  1.00000000  1
  O  O50  1  0.19747000  0.67164000  0.88621000  1
  O  O51  1  0.69747000  0.67164000  0.77241000  1
  O  O52  1  0.19941600  0.65929200  0.66071200  1
  O  O53  1  0.69798800  0.67429000  0.53645400  1
  O  O54  1  0.30253000  0.67164000  1.00000000  1
  O  O55  1  0.80253000  0.67164000  0.88621000  1
  O  O56  1  0.30253000  0.67164000  0.77241000  1
  O  O57  1  0.79865300  0.65940100  0.66258500  1
  O  O58  1  0.11992500  0.63748200  0.51411500  1
  O  O59  1  0.00000000  0.17164000  0.95506000  1
  O  O60  1  0.50000000  0.17164000  0.84126000  1
  O  O61  1  0.00021600  0.15531300  0.72933600  1
  O  O62  1  0.51004900  0.17599200  0.60996000  1
  O  O63  1  0.50000000  0.17164000  0.93115000  1
  O  O64  1  0.00000000  0.17164000  0.81736000  1
  O  O65  1  0.49514800  0.17738400  0.69899600  1
  O  O66  1  0.00882000  0.16166100  0.59013600  1
  O  O67  1  0.00000000  0.50000000  0.95668000  1
  O  O68  1  0.50000000  0.50000000  0.84289000  1
  O  O69  1  0.00049200  0.50002000  0.72830400  1
  O  O70  1  0.49443800  0.51087100  0.61126400  1
  O  O71  1  0.50000000  0.50000000  0.92952000  1
  O  O72  1  0.00000000  0.50000000  0.81573000  1
  O  O73  1  0.49376900  0.50111500  0.70173000  1
  O  O74  1  0.98538600  0.52941100  0.59391000  1
  O  O75  1  0.69034000  1.00000000  0.00000000  1
  O  O76  1  0.19034000  0.00000000  0.88621000  1
  O  O77  1  0.69034000  1.00000000  0.77241000  1
  O  O78  1  0.21180500  0.00587600  0.65639000  1
  O  O79  1  0.73121500  0.01212200  0.53974900  1
  O  O80  1  0.30966000  0.00000000  0.00000000  1
  O  O81  1  0.80966000  1.00000000  0.88621000  1
  O  O82  1  0.30966000  0.00000000  0.77241000  1
  O  O83  1  0.79119200  0.01207000  0.65921800  1
  O  O84  1  0.35829700  0.99255900  0.55424200  1
