# generated using pymatgen
data_MgTiMnVZnCrFeCoCuNiSb20ClO54
_symmetry_space_group_name_H-M   'P 1'
_cell_length_a   6.66997100
_cell_length_b   9.55418100
_cell_length_c   28.95606400
_cell_angle_alpha   90.19252800
_cell_angle_beta   89.98087600
_cell_angle_gamma   89.98450700
_symmetry_Int_Tables_number   1
_chemical_formula_structural   MgTiMnVZnCrFeCoCuNiSb20ClO54
_chemical_formula_sum
'Mg1 Ti1 Mn1 V1 Zn1 Cr1 Fe1 Co1 Cu1 Ni1 Sb20 Cl1 O54'
_cell_volume   1845.24673694
_cell_formula_units_Z   1
loop_
 _symmetry_equiv_pos_site_id
 _symmetry_equiv_pos_as_xyz
  1  'x, y, z'
loop_
 _atom_site_type_symbol
 _atom_site_label
 _atom_site_symmetry_multiplicity
 _atom_site_fract_x
 _atom_site_fract_y
 _atom_site_fract_z
 _atom_site_occupancy
  Mg  Mg0  1  0.00042100  0.49586800  0.65385100  1
  Ti  Ti1  1  0.99929600  0.17632400  0.66370800  1
  Mn  Mn2  1  0.00409300  0.00920000  0.57774100  1
  V  V3  1  0.50000000  0.66768000  0.88621000  1
  Zn  Zn4  1  0.49946600  0.00071900  0.65817600  1
  Cr  Cr5  1  0.50215300  0.49886600  0.54675900  1
  Fe  Fe6  1  0.00000000  0.16768000  0.88621000  1
  Co  Co7  1  0.00000000  0.83232000  0.88621000  1
  Cu  Cu8  1  1.00000000  0.66768000  1.00000000  1
  Ni  Ni9  1  0.00000000  0.00000000  0.77241000  1
  Sb  Sb10  1  0.00000000  0.00000000  0.00000000  1
  Sb  Sb11  1  0.50000000  0.00000000  0.88621000  1
  Sb  Sb12  1  0.50000000  0.50000000  1.00000000  1
  Sb  Sb13  1  0.00000000  0.50000000  0.88621000  1
  Sb  Sb14  1  0.50000000  0.50000000  0.77241000  1
  Sb  Sb15  1  0.00000000  0.33232000  1.00000000  1
  Sb  Sb16  1  0.50000000  0.33232000  0.88621000  1
  Sb  Sb17  1  1.00000000  0.33232000  0.77241000  1
  Sb  Sb18  1  0.49967100  0.32629500  0.65583100  1
  Sb  Sb19  1  0.00109900  0.32933000  0.53991700  1
  Sb  Sb20  1  0.50000000  0.83232000  1.00000000  1
  Sb  Sb21  1  0.50000000  0.83232000  0.77241000  1
  Sb  Sb22  1  0.99923800  0.83452700  0.66076200  1
  Sb  Sb23  1  0.50005900  0.82357000  0.54307800  1
  Sb  Sb24  1  0.50000000  0.16768000  1.00000000  1
  Sb  Sb25  1  0.50000000  0.16768000  0.77241000  1
  Sb  Sb26  1  0.50249700  0.17370900  0.54276700  1
  Sb  Sb27  1  0.00000000  0.66768000  0.77241000  1
  Sb  Sb28  1  0.49941400  0.67202400  0.65553700  1
  Sb  Sb29  1  0.99991200  0.66791400  0.53989700  1
  Cl  Cl30  1  0.50956700  0.50205200  0.46944800  1
  O  O31  1  0.00000000  0.17164000  0.95506000  1
  O  O32  1  0.50000000  0.17164000  0.84126000  1
  O  O33  1  0.99980400  0.15525700  0.72934800  1
  O  O34  1  0.49932400  0.16525700  0.61251600  1
  O  O35  1  0.50000000  0.17164000  0.93115000  1
  O  O36  1  0.00000000  0.17164000  0.81736000  1
  O  O37  1  0.50106500  0.17300400  0.70375900  1
  O  O38  1  0.00399400  0.19547200  0.59282700  1
  O  O39  1  0.30253000  0.67164000  1.00000000  1
  O  O40  1  0.80253000  0.67164000  0.88621000  1
  O  O41  1  0.30253000  0.67164000  0.77241000  1
  O  O42  1  0.80319900  0.66988000  0.66049400  1
  O  O43  1  0.31417800  0.65593800  0.55117600  1
  O  O44  1  0.69747000  0.67164000  1.00000000  1
  O  O45  1  0.19747000  0.67164000  0.88621000  1
  O  O46  1  0.69747000  0.67164000  0.77241000  1
  O  O47  1  0.19602000  0.67026900  0.66103200  1
  O  O48  1  0.68761200  0.65574700  0.55250200  1
  O  O49  1  0.30253000  0.32836000  1.00000000  1
  O  O50  1  0.80253000  0.32836000  0.88621000  1
  O  O51  1  0.30253000  0.32836000  0.77241000  1
  O  O52  1  0.80065400  0.32380600  0.66149900  1
  O  O53  1  0.31597600  0.34374900  0.55061300  1
  O  O54  1  0.69747000  0.32836000  1.00000000  1
  O  O55  1  0.19747000  0.32836000  0.88621000  1
  O  O56  1  0.69747000  0.32836000  0.77241000  1
  O  O57  1  0.19914400  0.32326000  0.66206300  1
  O  O58  1  0.68765400  0.34378800  0.55183300  1
  O  O59  1  0.00000000  0.82836000  0.95506000  1
  O  O60  1  0.50000000  0.82836000  0.84126000  1
  O  O61  1  0.99978400  0.84468700  0.72933600  1
  O  O62  1  0.49937900  0.83392400  0.61280000  1
  O  O63  1  0.50000000  0.82836000  0.93115000  1
  O  O64  1  1.00000000  0.82836000  0.81736000  1
  O  O65  1  0.49995200  0.82629900  0.70341100  1
  O  O66  1  0.00236600  0.81405100  0.59070000  1
  O  O67  1  0.00000000  0.50000000  0.95668000  1
  O  O68  1  0.50000000  0.50000000  0.84289000  1
  O  O69  1  0.99950800  0.49998000  0.72830400  1
  O  O70  1  0.49625100  0.49893000  0.61527300  1
  O  O71  1  0.50000000  0.50000000  0.92952000  1
  O  O72  1  0.00000000  0.50000000  0.81573000  1
  O  O73  1  0.50004200  0.50100900  0.70046900  1
  O  O74  1  0.00171200  0.49992700  0.58190500  1
  O  O75  1  0.30966000  1.00000000  1.00000000  1
  O  O76  1  0.80966000  0.00000000  0.88621000  1
  O  O77  1  0.30966000  1.00000000  0.77241000  1
  O  O78  1  0.81696900  0.00233700  0.65203100  1
  O  O79  1  0.22653800  0.00466400  0.54625800  1
  O  O80  1  0.69034000  0.00000000  0.00000000  1
  O  O81  1  0.19034000  1.00000000  0.88621000  1
  O  O82  1  0.69034000  0.00000000  0.77241000  1
  O  O83  1  0.18207600  0.00210900  0.65180700  1
  O  O84  1  0.78509400  0.00839600  0.54554800  1
