# generated using pymatgen
data_MgTiMnVZnCrFeCoCuNiSb20ClO54
_symmetry_space_group_name_H-M   'P 1'
_cell_length_a   6.55656000
_cell_length_b   9.70068100
_cell_length_c   28.79734900
_cell_angle_alpha   90.02668700
_cell_angle_beta   89.98321900
_cell_angle_gamma   89.94616400
_symmetry_Int_Tables_number   1
_chemical_formula_structural   MgTiMnVZnCrFeCoCuNiSb20ClO54
_chemical_formula_sum
'Mg1 Ti1 Mn1 V1 Zn1 Cr1 Fe1 Co1 Cu1 Ni1 Sb20 Cl1 O54'
_cell_volume   1831.59949628
_cell_formula_units_Z   1
loop_
 _symmetry_equiv_pos_site_id
 _symmetry_equiv_pos_as_xyz
  1  'x, y, z'
loop_
 _atom_site_type_symbol
 _atom_site_label
 _atom_site_symmetry_multiplicity
 _atom_site_fract_x
 _atom_site_fract_y
 _atom_site_fract_z
 _atom_site_occupancy
  Mg  Mg0  1  0.00000000  0.83232000  0.88621000  1
  Ti  Ti1  1  0.50000000  0.83232000  1.00000000  1
  Mn  Mn2  1  0.50000000  0.66768000  0.88621000  1
  V  V3  1  0.00000000  0.00000000  0.00000000  1
  Zn  Zn4  1  0.00730700  0.33425900  0.54705100  1
  Cr  Cr5  1  0.50267400  0.46557100  0.52822000  1
  Fe  Fe6  1  0.50000000  0.50000000  0.77241000  1
  Co  Co7  1  0.49434000  0.17967800  0.54326500  1
  Cu  Cu8  1  1.00000000  0.33232000  1.00000000  1
  Ni  Ni9  1  1.00000000  0.66768000  1.00000000  1
  Sb  Sb10  1  0.50000000  1.00000000  0.88621000  1
  Sb  Sb11  1  0.00000000  1.00000000  0.77241000  1
  Sb  Sb12  1  0.49582700  0.00465300  0.62433700  1
  Sb  Sb13  1  0.99934400  0.02776200  0.53538400  1
  Sb  Sb14  1  0.50000000  0.50000000  1.00000000  1
  Sb  Sb15  1  0.00000000  0.50000000  0.88621000  1
  Sb  Sb16  1  0.99913400  0.50798400  0.64634100  1
  Sb  Sb17  1  0.00000000  0.66768000  0.77241000  1
  Sb  Sb18  1  0.50135200  0.66121600  0.65963500  1
  Sb  Sb19  1  0.00810500  0.64559500  0.51684100  1
  Sb  Sb20  1  0.50000000  0.16768000  1.00000000  1
  Sb  Sb21  1  0.00000000  0.16768000  0.88621000  1
  Sb  Sb22  1  0.50000000  0.16768000  0.77241000  1
  Sb  Sb23  1  0.00001400  0.16661600  0.65705900  1
  Sb  Sb24  1  0.50000000  0.83232000  0.77241000  1
  Sb  Sb25  1  0.99605300  0.84596300  0.65009900  1
  Sb  Sb26  1  0.50544400  0.78706500  0.53191700  1
  Sb  Sb27  1  0.50000000  0.33232000  0.88621000  1
  Sb  Sb28  1  0.00000000  0.33232000  0.77241000  1
  Sb  Sb29  1  0.50023500  0.33444200  0.66246200  1
  Cl  Cl30  1  0.48056700  0.48421600  0.45262300  1
  O  O31  1  0.00000000  0.82836000  0.95506000  1
  O  O32  1  0.50000000  0.82836000  0.84126000  1
  O  O33  1  0.00019600  0.84474300  0.72934800  1
  O  O34  1  0.51354600  0.78128300  0.60289200  1
  O  O35  1  0.50000000  0.82836000  0.93115000  1
  O  O36  1  0.00000000  0.82836000  0.81736000  1
  O  O37  1  0.49608400  0.82748100  0.70209100  1
  O  O38  1  0.99216200  0.82582700  0.55315400  1
  O  O39  1  0.69747000  0.32836000  1.00000000  1
  O  O40  1  0.19747000  0.32836000  0.88621000  1
  O  O41  1  0.69747000  0.32836000  0.77241000  1
  O  O42  1  0.19388000  0.32285700  0.66657500  1
  O  O43  1  0.68622800  0.32543700  0.53310800  1
  O  O44  1  0.30253000  0.32836000  1.00000000  1
  O  O45  1  0.80253000  0.32836000  0.88621000  1
  O  O46  1  0.30253000  0.32836000  0.77241000  1
  O  O47  1  0.80464600  0.32160700  0.66679400  1
  O  O48  1  0.30239900  0.31573500  0.53001000  1
  O  O49  1  0.69747000  0.67164000  1.00000000  1
  O  O50  1  0.19747000  0.67164000  0.88621000  1
  O  O51  1  0.69747000  0.67164000  0.77241000  1
  O  O52  1  0.20230100  0.66930500  0.66445000  1
  O  O53  1  0.69490700  0.62466400  0.53099000  1
  O  O54  1  0.30253000  0.67164000  1.00000000  1
  O  O55  1  0.80253000  0.67164000  0.88621000  1
  O  O56  1  0.30253000  0.67164000  0.77241000  1
  O  O57  1  0.79918400  0.66947700  0.66765600  1
  O  O58  1  0.31851400  0.62191600  0.53822300  1
  O  O59  1  0.00000000  0.17164000  0.95506000  1
  O  O60  1  0.50000000  0.17164000  0.84126000  1
  O  O61  1  0.00021600  0.15531300  0.72933600  1
  O  O62  1  0.48896200  0.21045800  0.61018400  1
  O  O63  1  0.50000000  0.17164000  0.93115000  1
  O  O64  1  1.00000000  0.17164000  0.81736000  1
  O  O65  1  0.49862500  0.17145800  0.70440600  1
  O  O66  1  0.99138100  0.17492500  0.58930900  1
  O  O67  1  0.00000000  0.50000000  0.95668000  1
  O  O68  1  0.50000000  0.50000000  0.84289000  1
  O  O69  1  0.00049200  0.50002000  0.72830400  1
  O  O70  1  0.50624800  0.49294100  0.61715300  1
  O  O71  1  0.50000000  0.50000000  0.92952000  1
  O  O72  1  0.00000000  0.50000000  0.81573000  1
  O  O73  1  0.49819400  0.49820100  0.70536800  1
  O  O74  1  0.99787600  0.51787400  0.57137100  1
  O  O75  1  0.69034000  0.00000000  1.00000000  1
  O  O76  1  0.19034000  1.00000000  0.88621000  1
  O  O77  1  0.69034000  1.00000000  0.77241000  1
  O  O78  1  0.19959800  0.01543100  0.66229700  1
  O  O79  1  0.68120700  0.02863000  0.55556100  1
  O  O80  1  0.30966000  0.00000000  0.00000000  1
  O  O81  1  0.80966000  1.00000000  0.88621000  1
  O  O82  1  0.30966000  1.00000000  0.77241000  1
  O  O83  1  0.79964000  0.01664900  0.66279100  1
  O  O84  1  0.30853900  0.02449000  0.55790400  1
