# generated using pymatgen
data_MgTiMnVZnCrFeCoCuNiSb20ClO54
_symmetry_space_group_name_H-M   'P 1'
_cell_length_a   6.69940300
_cell_length_b   9.44512500
_cell_length_c   28.82733100
_cell_angle_alpha   89.96322700
_cell_angle_beta   89.98162800
_cell_angle_gamma   89.96978100
_symmetry_Int_Tables_number   1
_chemical_formula_structural   MgTiMnVZnCrFeCoCuNiSb20ClO54
_chemical_formula_sum
'Mg1 Ti1 Mn1 V1 Zn1 Cr1 Fe1 Co1 Cu1 Ni1 Sb20 Cl1 O54'
_cell_volume   1824.09761678
_cell_formula_units_Z   1
loop_
 _symmetry_equiv_pos_site_id
 _symmetry_equiv_pos_as_xyz
  1  'x, y, z'
loop_
 _atom_site_type_symbol
 _atom_site_label
 _atom_site_symmetry_multiplicity
 _atom_site_fract_x
 _atom_site_fract_y
 _atom_site_fract_z
 _atom_site_occupancy
  Mg  Mg0  1  0.50234500  0.66383900  0.65717900  1
  Ti  Ti1  1  0.50264900  0.35057200  0.66574100  1
  Mn  Mn2  1  0.00000000  0.00000000  0.77241000  1
  V  V3  1  0.50185200  0.99236800  0.66105000  1
  Zn  Zn4  1  0.00000000  0.16768000  0.88621000  1
  Cr  Cr5  1  0.50242900  0.50103200  0.55196500  1
  Fe  Fe6  1  0.50000000  0.00000000  0.88621000  1
  Co  Co7  1  0.50000000  0.50000000  0.77241000  1
  Cu  Cu8  1  0.50000000  0.33232000  0.88621000  1
  Ni  Ni9  1  1.00000000  0.33232000  0.00000000  1
  Sb  Sb10  1  0.00000000  0.00000000  0.00000000  1
  Sb  Sb11  1  0.00254300  0.02083600  0.53121700  1
  Sb  Sb12  1  0.50000000  0.50000000  0.00000000  1
  Sb  Sb13  1  0.00000000  0.50000000  0.88621000  1
  Sb  Sb14  1  0.00364000  0.50083200  0.65620800  1
  Sb  Sb15  1  0.00000000  0.33232000  0.77241000  1
  Sb  Sb16  1  0.00172800  0.33257000  0.53043400  1
  Sb  Sb17  1  0.50000000  0.83232000  0.00000000  1
  Sb  Sb18  1  0.00000000  0.83232000  0.88621000  1
  Sb  Sb19  1  0.50000000  0.83232000  0.77241000  1
  Sb  Sb20  1  0.00147500  0.83069200  0.65777300  1
  Sb  Sb21  1  0.50406600  0.81714700  0.54479800  1
  Sb  Sb22  1  0.50000000  0.16768000  0.00000000  1
  Sb  Sb23  1  0.50000000  0.16768000  0.77241000  1
  Sb  Sb24  1  0.00273700  0.16490200  0.65812800  1
  Sb  Sb25  1  0.50171400  0.17929900  0.55646400  1
  Sb  Sb26  1  0.00000000  0.66768000  0.00000000  1
  Sb  Sb27  1  0.50000000  0.66768000  0.88621000  1
  Sb  Sb28  1  0.00000000  0.66768000  0.77241000  1
  Sb  Sb29  1  0.00142500  0.66401400  0.54205200  1
  Cl  Cl30  1  0.51211900  0.54715200  0.47406200  1
  O  O31  1  1.00000000  0.17164000  0.95506000  1
  O  O32  1  0.50000000  0.17164000  0.84126000  1
  O  O33  1  0.99980400  0.15525700  0.72934800  1
  O  O34  1  0.49917300  0.16581800  0.62279400  1
  O  O35  1  0.50000000  0.17164000  0.93115000  1
  O  O36  1  0.00000000  0.17164000  0.81736000  1
  O  O37  1  0.50273000  0.15927200  0.70369900  1
  O  O38  1  0.00505500  0.17366100  0.58738400  1
  O  O39  1  0.30253000  0.67164000  1.00000000  1
  O  O40  1  0.80253000  0.67164000  0.88621000  1
  O  O41  1  0.30253000  0.67164000  0.77241000  1
  O  O42  1  0.81024300  0.66448900  0.66112000  1
  O  O43  1  0.30736700  0.65300000  0.56097600  1
  O  O44  1  0.69747000  0.67164000  1.00000000  1
  O  O45  1  0.19747000  0.67164000  0.88621000  1
  O  O46  1  0.69747000  0.67164000  0.77241000  1
  O  O47  1  0.19466600  0.66559600  0.66116400  1
  O  O48  1  0.69727400  0.65179800  0.56261900  1
  O  O49  1  0.30253000  0.32836000  1.00000000  1
  O  O50  1  0.80253000  0.32836000  0.88621000  1
  O  O51  1  0.30253000  0.32836000  0.77241000  1
  O  O52  1  0.81049900  0.33434100  0.66260500  1
  O  O53  1  0.31406300  0.33919100  0.54397000  1
  O  O54  1  0.69747000  0.32836000  1.00000000  1
  O  O55  1  0.19747000  0.32836000  0.88621000  1
  O  O56  1  0.69747000  0.32836000  0.77241000  1
  O  O57  1  0.19444200  0.33384000  0.66397600  1
  O  O58  1  0.69128400  0.33917900  0.54597400  1
  O  O59  1  0.00000000  0.82836000  0.95506000  1
  O  O60  1  0.50000000  0.82836000  0.84126000  1
  O  O61  1  0.99978400  0.84468700  0.72933600  1
  O  O62  1  0.50209700  0.85352900  0.61527100  1
  O  O63  1  0.50000000  0.82836000  0.93115000  1
  O  O64  1  0.00000000  0.82836000  0.81736000  1
  O  O65  1  0.50274200  0.83870000  0.70284600  1
  O  O66  1  0.00180000  0.83860500  0.58784200  1
  O  O67  1  0.00000000  0.50000000  0.95668000  1
  O  O68  1  0.50000000  0.50000000  0.84289000  1
  O  O69  1  0.99950800  0.49998000  0.72830400  1
  O  O70  1  0.49773600  0.47130500  0.61754400  1
  O  O71  1  0.50000000  0.50000000  0.92952000  1
  O  O72  1  0.00000000  0.50000000  0.81573000  1
  O  O73  1  0.50200300  0.49498000  0.70593400  1
  O  O74  1  0.00526100  0.48996600  0.58785800  1
  O  O75  1  0.30966000  0.00000000  1.00000000  1
  O  O76  1  0.80966000  0.00000000  0.88621000  1
  O  O77  1  0.30966000  0.00000000  0.77241000  1
  O  O78  1  0.80153300  0.99799900  0.65905900  1
  O  O79  1  0.31093800  0.02625700  0.54190700  1
  O  O80  1  0.69034000  0.00000000  1.00000000  1
  O  O81  1  0.19034000  0.00000000  0.88621000  1
  O  O82  1  0.69034000  0.00000000  0.77241000  1
  O  O83  1  0.20248300  0.99706900  0.65978600  1
  O  O84  1  0.69494300  0.02726200  0.54277700  1
