# generated using pymatgen
data_MgTiMnVZnCrFeCoCuNiSb20ClO54
_symmetry_space_group_name_H-M   'P 1'
_cell_length_a   6.66952700
_cell_length_b   9.41082900
_cell_length_c   29.02324800
_cell_angle_alpha   90.53954300
_cell_angle_beta   89.88714500
_cell_angle_gamma   89.99038400
_symmetry_Int_Tables_number   1
_chemical_formula_structural   MgTiMnVZnCrFeCoCuNiSb20ClO54
_chemical_formula_sum
'Mg1 Ti1 Mn1 V1 Zn1 Cr1 Fe1 Co1 Cu1 Ni1 Sb20 Cl1 O54'
_cell_volume   1821.58241010
_cell_formula_units_Z   1
loop_
 _symmetry_equiv_pos_site_id
 _symmetry_equiv_pos_as_xyz
  1  'x, y, z'
loop_
 _atom_site_type_symbol
 _atom_site_label
 _atom_site_symmetry_multiplicity
 _atom_site_fract_x
 _atom_site_fract_y
 _atom_site_fract_z
 _atom_site_occupancy
  Mg  Mg0  1  0.50000000  0.83232000  0.00000000  1
  Ti  Ti1  1  0.50000000  0.83232000  0.22759000  1
  Mn  Mn2  1  0.00000000  0.66768000  0.00000000  1
  V  V3  1  1.00000000  0.50000000  0.11379000  1
  Zn  Zn4  1  0.50000000  0.16768000  0.22759000  1
  Cr  Cr5  1  0.50232200  0.50231500  0.44507900  1
  Fe  Fe6  1  0.50035900  0.31874800  0.33366700  1
  Co  Co7  1  0.49952300  0.00204900  0.34064400  1
  Cu  Cu8  1  1.00000000  0.33232000  0.22759000  1
  Ni  Ni9  1  0.50000000  0.66768000  0.11379000  1
  Sb  Sb10  1  0.00000000  0.00000000  0.00000000  1
  Sb  Sb11  1  0.50000000  0.00000000  0.11379000  1
  Sb  Sb12  1  1.00000000  0.00000000  0.22759000  1
  Sb  Sb13  1  0.99928600  0.00977300  0.46538300  1
  Sb  Sb14  1  0.50000000  0.50000000  0.00000000  1
  Sb  Sb15  1  0.50000000  0.50000000  0.22759000  1
  Sb  Sb16  1  0.00092400  0.49611500  0.33970100  1
  Sb  Sb17  1  0.00000000  0.66768000  0.22759000  1
  Sb  Sb18  1  0.50037900  0.67403200  0.34259800  1
  Sb  Sb19  1  0.99844400  0.66382000  0.46088000  1
  Sb  Sb20  1  0.50000000  0.16768000  0.00000000  1
  Sb  Sb21  1  1.00000000  0.16768000  0.11379000  1
  Sb  Sb22  1  0.00048500  0.16794400  0.33973600  1
  Sb  Sb23  1  0.50194200  0.17518800  0.44758100  1
  Sb  Sb24  1  0.00000000  0.83232000  0.11379000  1
  Sb  Sb25  1  0.00124200  0.84362000  0.34539000  1
  Sb  Sb26  1  0.50248500  0.82399500  0.45840800  1
  Sb  Sb27  1  0.00000000  0.33232000  0.00000000  1
  Sb  Sb28  1  0.50000000  0.33232000  0.11379000  1
  Sb  Sb29  1  0.99994600  0.34069000  0.45985300  1
  Cl  Cl30  1  0.52037100  0.51780400  0.52314500  1
  O  O31  1  0.00000000  0.82836000  0.04494000  1
  O  O32  1  0.50000000  0.82836000  0.15874000  1
  O  O33  1  0.99980400  0.84474300  0.27065200  1
  O  O34  1  0.49260200  0.84265200  0.38491400  1
  O  O35  1  0.50000000  0.82836000  0.06885000  1
  O  O36  1  0.00000000  0.82836000  0.18264000  1
  O  O37  1  0.50129800  0.83634600  0.29741100  1
  O  O38  1  0.00351500  0.83538600  0.41425300  1
  O  O39  1  0.30253000  0.32836000  1.00000000  1
  O  O40  1  0.80253000  0.32836000  0.11379000  1
  O  O41  1  0.30253000  0.32836000  0.22759000  1
  O  O42  1  0.80527500  0.33272300  0.33846400  1
  O  O43  1  0.30960500  0.35634700  0.44582400  1
  O  O44  1  0.69747000  0.32836000  0.00000000  1
  O  O45  1  0.19747000  0.32836000  0.11379000  1
  O  O46  1  0.69747000  0.32836000  0.22759000  1
  O  O47  1  0.19557800  0.33243700  0.33740700  1
  O  O48  1  0.69313900  0.35638500  0.44219100  1
  O  O49  1  0.30253000  0.67164000  1.00000000  1
  O  O50  1  0.80253000  0.67164000  0.11379000  1
  O  O51  1  0.30253000  0.67164000  0.22759000  1
  O  O52  1  0.81025100  0.67252600  0.33877900  1
  O  O53  1  0.30631900  0.65552400  0.44257700  1
  O  O54  1  0.69747000  0.67164000  0.00000000  1
  O  O55  1  0.19747000  0.67164000  0.11379000  1
  O  O56  1  0.69747000  0.67164000  0.22759000  1
  O  O57  1  0.19070100  0.67207300  0.33782700  1
  O  O58  1  0.69478500  0.65616000  0.43901600  1
  O  O59  1  0.00000000  0.17164000  0.04494000  1
  O  O60  1  0.50000000  0.17164000  0.15874000  1
  O  O61  1  0.99978400  0.15531300  0.27066400  1
  O  O62  1  0.49609800  0.16507900  0.37993000  1
  O  O63  1  0.50000000  0.17164000  0.06885000  1
  O  O64  1  1.00000000  0.17164000  0.18264000  1
  O  O65  1  0.50155700  0.15233500  0.29969400  1
  O  O66  1  0.00570000  0.17415700  0.41070600  1
  O  O67  1  0.00000000  0.50000000  0.04332000  1
  O  O68  1  0.50000000  0.50000000  0.15711000  1
  O  O69  1  0.99950800  0.50002000  0.27169600  1
  O  O70  1  0.49411700  0.49870100  0.37882500  1
  O  O71  1  0.50000000  0.50000000  0.07048000  1
  O  O72  1  0.00000000  0.50000000  0.18427000  1
  O  O73  1  0.50272700  0.51328100  0.29569000  1
  O  O74  1  0.00430500  0.50254600  0.40816700  1
  O  O75  1  0.30966000  1.00000000  1.00000000  1
  O  O76  1  0.80966000  0.00000000  0.11379000  1
  O  O77  1  0.30966000  1.00000000  0.22759000  1
  O  O78  1  0.79633200  0.00250700  0.34142100  1
  O  O79  1  0.30032500  0.00546700  0.44939100  1
  O  O80  1  0.69034000  0.00000000  0.00000000  1
  O  O81  1  0.19034000  1.00000000  0.11379000  1
  O  O82  1  0.69034000  0.00000000  0.22759000  1
  O  O83  1  0.20477300  0.00262200  0.34037700  1
  O  O84  1  0.70289900  0.00504800  0.44544500  1
