# generated using pymatgen
data_MgTiMnVZnCrFeCoCuNiSb20ClO54
_symmetry_space_group_name_H-M   'P 1'
_cell_length_a   6.66543700
_cell_length_b   9.54255300
_cell_length_c   28.86339400
_cell_angle_alpha   90.29348500
_cell_angle_beta   89.95340300
_cell_angle_gamma   89.99743600
_symmetry_Int_Tables_number   1
_chemical_formula_structural   MgTiMnVZnCrFeCoCuNiSb20ClO54
_chemical_formula_sum
'Mg1 Ti1 Mn1 V1 Zn1 Cr1 Fe1 Co1 Cu1 Ni1 Sb20 Cl1 O54'
_cell_volume   1835.83973196
_cell_formula_units_Z   1
loop_
 _symmetry_equiv_pos_site_id
 _symmetry_equiv_pos_as_xyz
  1  'x, y, z'
loop_
 _atom_site_type_symbol
 _atom_site_label
 _atom_site_symmetry_multiplicity
 _atom_site_fract_x
 _atom_site_fract_y
 _atom_site_fract_z
 _atom_site_occupancy
  Mg  Mg0  1  0.50094100  0.16464100  0.45497600  1
  Ti  Ti1  1  0.50000000  0.83232000  1.00000000  1
  Mn  Mn2  1  0.50196600  0.82965200  0.45391200  1
  V  V3  1  0.00000000  0.33232000  0.22759000  1
  Zn  Zn4  1  0.49987700  0.66611200  0.34763100  1
  Cr  Cr5  1  0.50266800  0.49694900  0.45692500  1
  Fe  Fe6  1  0.00000000  0.66768000  1.00000000  1
  Co  Co7  1  0.50000000  0.33232000  0.11379000  1
  Cu  Cu8  1  0.00000000  0.50000000  0.11379000  1
  Ni  Ni9  1  0.00000000  0.16768000  0.11379000  1
  Sb  Sb10  1  0.00000000  0.00000000  0.00000000  1
  Sb  Sb11  1  0.50000000  1.00000000  0.11379000  1
  Sb  Sb12  1  0.00000000  1.00000000  0.22759000  1
  Sb  Sb13  1  0.50040200  0.99349900  0.34431500  1
  Sb  Sb14  1  0.00150000  0.00706900  0.46596500  1
  Sb  Sb15  1  0.50000000  0.50000000  0.00000000  1
  Sb  Sb16  1  0.50000000  0.50000000  0.22759000  1
  Sb  Sb17  1  0.99904900  0.51362100  0.34567400  1
  Sb  Sb18  1  0.50000000  0.66768000  0.11379000  1
  Sb  Sb19  1  0.00000000  0.66768000  0.22759000  1
  Sb  Sb20  1  0.00240900  0.68385200  0.46859700  1
  Sb  Sb21  1  0.50000000  0.16768000  1.00000000  1
  Sb  Sb22  1  0.50000000  0.16768000  0.22759000  1
  Sb  Sb23  1  0.00082200  0.16952100  0.34367400  1
  Sb  Sb24  1  0.00000000  0.83232000  0.11379000  1
  Sb  Sb25  1  0.50000000  0.83232000  0.22759000  1
  Sb  Sb26  1  0.00071400  0.83268500  0.34647300  1
  Sb  Sb27  1  1.00000000  0.33232000  1.00000000  1
  Sb  Sb28  1  0.49991800  0.33735100  0.34589700  1
  Sb  Sb29  1  0.00110700  0.33833800  0.46780200  1
  Cl  Cl30  1  0.51308500  0.50620300  0.53449200  1
  O  O31  1  1.00000000  0.82836000  0.04494000  1
  O  O32  1  0.50000000  0.82836000  0.15874000  1
  O  O33  1  0.99980400  0.84474300  0.27065200  1
  O  O34  1  0.49876500  0.84015600  0.38747400  1
  O  O35  1  0.50000000  0.82836000  0.06885000  1
  O  O36  1  0.00000000  0.82836000  0.18264000  1
  O  O37  1  0.50042700  0.84249300  0.29569700  1
  O  O38  1  0.00577400  0.83966800  0.41517100  1
  O  O39  1  0.30253000  0.32836000  1.00000000  1
  O  O40  1  0.80253000  0.32836000  0.11379000  1
  O  O41  1  0.30253000  0.32836000  0.22759000  1
  O  O42  1  0.79523000  0.31819400  0.33714600  1
  O  O43  1  0.31161300  0.34134600  0.45543600  1
  O  O44  1  0.69747000  0.32836000  1.00000000  1
  O  O45  1  0.19747000  0.32836000  0.11379000  1
  O  O46  1  0.69747000  0.32836000  0.22759000  1
  O  O47  1  0.20482200  0.31921400  0.33668900  1
  O  O48  1  0.69140900  0.34107300  0.45411500  1
  O  O49  1  0.30253000  0.67164000  1.00000000  1
  O  O50  1  0.80253000  0.67164000  0.11379000  1
  O  O51  1  0.30253000  0.67164000  0.22759000  1
  O  O52  1  0.80154900  0.68571000  0.33696200  1
  O  O53  1  0.31875200  0.67415000  0.45662100  1
  O  O54  1  0.69747000  0.67164000  1.00000000  1
  O  O55  1  0.19747000  0.67164000  0.11379000  1
  O  O56  1  0.69747000  0.67164000  0.22759000  1
  O  O57  1  0.19831800  0.68454300  0.33654300  1
  O  O58  1  0.68682100  0.67491800  0.45472800  1
  O  O59  1  0.00000000  0.17164000  0.04494000  1
  O  O60  1  0.50000000  0.17164000  0.15874000  1
  O  O61  1  0.99978400  0.15531300  0.27066400  1
  O  O62  1  0.49776400  0.16260000  0.38516800  1
  O  O63  1  0.50000000  0.17164000  0.06885000  1
  O  O64  1  0.00000000  0.17164000  0.18264000  1
  O  O65  1  0.50042300  0.15939800  0.29750900  1
  O  O66  1  0.00201900  0.16857700  0.41459500  1
  O  O67  1  0.00000000  0.50000000  0.04332000  1
  O  O68  1  0.50000000  0.50000000  0.15711000  1
  O  O69  1  0.99950800  0.50002000  0.27169600  1
  O  O70  1  0.49885800  0.49708500  0.38832500  1
  O  O71  1  0.50000000  0.50000000  0.07048000  1
  O  O72  1  0.00000000  0.50000000  0.18427000  1
  O  O73  1  0.50214700  0.49287100  0.29792900  1
  O  O74  1  0.00367600  0.51372500  0.42800500  1
  O  O75  1  0.30966000  0.00000000  1.00000000  1
  O  O76  1  0.80966000  1.00000000  0.11379000  1
  O  O77  1  0.30966000  0.00000000  0.22759000  1
  O  O78  1  0.80941100  0.99905600  0.34140900  1
  O  O79  1  0.31358500  0.98291900  0.46205000  1
  O  O80  1  0.69034000  1.00000000  0.00000000  1
  O  O81  1  0.19034000  0.00000000  0.11379000  1
  O  O82  1  0.69034000  1.00000000  0.22759000  1
  O  O83  1  0.19151600  0.99906400  0.34106500  1
  O  O84  1  0.69040100  0.98399100  0.46030300  1
