# generated using pymatgen
data_MgTiMnVZnCrFeCoCuNiSb20ClO54
_symmetry_space_group_name_H-M   'P 1'
_cell_length_a   6.59968700
_cell_length_b   9.64157300
_cell_length_c   29.07643200
_cell_angle_alpha   90.11617400
_cell_angle_beta   89.98892600
_cell_angle_gamma   89.99992000
_symmetry_Int_Tables_number   1
_chemical_formula_structural   MgTiMnVZnCrFeCoCuNiSb20ClO54
_chemical_formula_sum
'Mg1 Ti1 Mn1 V1 Zn1 Cr1 Fe1 Co1 Cu1 Ni1 Sb20 Cl1 O54'
_cell_volume   1850.16919024
_cell_formula_units_Z   1
loop_
 _symmetry_equiv_pos_site_id
 _symmetry_equiv_pos_as_xyz
  1  'x, y, z'
loop_
 _atom_site_type_symbol
 _atom_site_label
 _atom_site_symmetry_multiplicity
 _atom_site_fract_x
 _atom_site_fract_y
 _atom_site_fract_z
 _atom_site_occupancy
  Mg  Mg0  1  0.00047700  0.00238200  0.44154700  1
  Ti  Ti1  1  0.00000000  0.66768000  0.00000000  1
  Mn  Mn2  1  0.00071100  0.33709700  0.44592500  1
  V  V3  1  0.00029500  0.82324100  0.34313200  1
  Zn  Zn4  1  1.00000000  0.33232000  0.22759000  1
  Cr  Cr5  1  0.50066000  0.48638400  0.45403800  1
  Fe  Fe6  1  0.50000000  0.16768000  0.22759000  1
  Co  Co7  1  0.00000000  0.50000000  0.11379000  1
  Cu  Cu8  1  1.00000000  0.83232000  0.11379000  1
  Ni  Ni9  1  0.50000000  0.50000000  0.00000000  1
  Sb  Sb10  1  0.00000000  0.00000000  0.00000000  1
  Sb  Sb11  1  0.50000000  0.00000000  0.11379000  1
  Sb  Sb12  1  0.00000000  0.00000000  0.22759000  1
  Sb  Sb13  1  0.50036600  0.99604100  0.34189900  1
  Sb  Sb14  1  0.50000000  0.50000000  0.22759000  1
  Sb  Sb15  1  0.00101200  0.50550300  0.33919700  1
  Sb  Sb16  1  0.50000000  0.66768000  0.11379000  1
  Sb  Sb17  1  0.00000000  0.66768000  0.22759000  1
  Sb  Sb18  1  0.50010000  0.66523900  0.36784000  1
  Sb  Sb19  1  0.00010500  0.66976900  0.45401700  1
  Sb  Sb20  1  0.50000000  0.16768000  0.00000000  1
  Sb  Sb21  1  1.00000000  0.16768000  0.11379000  1
  Sb  Sb22  1  0.00018400  0.15694000  0.33934000  1
  Sb  Sb23  1  0.50047200  0.16686700  0.46165100  1
  Sb  Sb24  1  0.50000000  0.83232000  0.00000000  1
  Sb  Sb25  1  0.50000000  0.83232000  0.22759000  1
  Sb  Sb26  1  0.50051100  0.83337300  0.46868600  1
  Sb  Sb27  1  0.00000000  0.33232000  0.00000000  1
  Sb  Sb28  1  0.50000000  0.33232000  0.11379000  1
  Sb  Sb29  1  0.50052000  0.32436000  0.33742900  1
  Cl  Cl30  1  0.50525300  0.54927900  0.52846200  1
  O  O31  1  0.00000000  0.82836000  0.04494000  1
  O  O32  1  0.50000000  0.82836000  0.15874000  1
  O  O33  1  0.99980400  0.84474300  0.27065200  1
  O  O34  1  0.50038000  0.86933700  0.39456800  1
  O  O35  1  0.50000000  0.82836000  0.06885000  1
  O  O36  1  0.00000000  0.82836000  0.18264000  1
  O  O37  1  0.50108600  0.83926100  0.29782400  1
  O  O38  1  0.00033100  0.82652800  0.40629100  1
  O  O39  1  0.30253000  0.32836000  0.00000000  1
  O  O40  1  0.80253000  0.32836000  0.11379000  1
  O  O41  1  0.30253000  0.32836000  0.22759000  1
  O  O42  1  0.80717700  0.32105900  0.33746400  1
  O  O43  1  0.28660100  0.34568200  0.46014900  1
  O  O44  1  0.69747000  0.32836000  0.00000000  1
  O  O45  1  0.19747000  0.32836000  0.11379000  1
  O  O46  1  0.69747000  0.32836000  0.22759000  1
  O  O47  1  0.19395300  0.32028300  0.33698200  1
  O  O48  1  0.71433700  0.34591200  0.45973600  1
  O  O49  1  0.30253000  0.67164000  0.00000000  1
  O  O50  1  0.80253000  0.67164000  0.11379000  1
  O  O51  1  0.30253000  0.67164000  0.22759000  1
  O  O52  1  0.81461800  0.69524600  0.33748800  1
  O  O53  1  0.31746300  0.65547600  0.43624400  1
  O  O54  1  0.69747000  0.67164000  0.00000000  1
  O  O55  1  0.19747000  0.67164000  0.11379000  1
  O  O56  1  0.69747000  0.67164000  0.22759000  1
  O  O57  1  0.18677000  0.69591100  0.33711100  1
  O  O58  1  0.68329500  0.65493400  0.43585400  1
  O  O59  1  1.00000000  0.17164000  0.04494000  1
  O  O60  1  0.50000000  0.17164000  0.15874000  1
  O  O61  1  0.99978400  0.15531300  0.27066400  1
  O  O62  1  0.50083000  0.16314400  0.38602600  1
  O  O63  1  0.50000000  0.17164000  0.06885000  1
  O  O64  1  0.00000000  0.17164000  0.18264000  1
  O  O65  1  0.50125800  0.15562300  0.29756900  1
  O  O66  1  0.00062100  0.17265900  0.40675000  1
  O  O67  1  0.00000000  0.50000000  0.04332000  1
  O  O68  1  0.50000000  0.50000000  0.15711000  1
  O  O69  1  0.99950800  0.50002000  0.27169600  1
  O  O70  1  0.49714400  0.45301100  0.38859800  1
  O  O71  1  0.50000000  0.50000000  0.07048000  1
  O  O72  1  0.00000000  0.50000000  0.18427000  1
  O  O73  1  0.50078000  0.49441000  0.29907300  1
  O  O74  1  0.00164600  0.50392700  0.41359900  1
  O  O75  1  0.30966000  1.00000000  1.00000000  1
  O  O76  1  0.80966000  0.00000000  0.11379000  1
  O  O77  1  0.30966000  0.00000000  0.22759000  1
  O  O78  1  0.80841100  0.99388000  0.34115600  1
  O  O79  1  0.28716600  0.00010600  0.46255300  1
  O  O80  1  0.69034000  0.00000000  0.00000000  1
  O  O81  1  0.19034000  0.00000000  0.11379000  1
  O  O82  1  0.69034000  0.00000000  0.22759000  1
  O  O83  1  0.19264300  0.99414800  0.34112800  1
  O  O84  1  0.71376800  0.00020100  0.46255200  1
