# generated using pymatgen
data_MgTiMnVZnCrFeCoCuNiSb20ClO54
_symmetry_space_group_name_H-M   'P 1'
_cell_length_a   6.71413600
_cell_length_b   9.45666800
_cell_length_c   29.10474800
_cell_angle_alpha   90.43889900
_cell_angle_beta   89.96544900
_cell_angle_gamma   89.98013000
_symmetry_Int_Tables_number   1
_chemical_formula_structural   MgTiMnVZnCrFeCoCuNiSb20ClO54
_chemical_formula_sum
'Mg1 Ti1 Mn1 V1 Zn1 Cr1 Fe1 Co1 Cu1 Ni1 Sb20 Cl1 O54'
_cell_volume   1847.90343051
_cell_formula_units_Z   1
loop_
 _symmetry_equiv_pos_site_id
 _symmetry_equiv_pos_as_xyz
  1  'x, y, z'
loop_
 _atom_site_type_symbol
 _atom_site_label
 _atom_site_symmetry_multiplicity
 _atom_site_fract_x
 _atom_site_fract_y
 _atom_site_fract_z
 _atom_site_occupancy
  Mg  Mg0  1  0.50000000  1.00000000  0.11379000  1
  Ti  Ti1  1  1.00000000  0.50000000  0.11379000  1
  Mn  Mn2  1  0.99525400  0.00134700  0.42618700  1
  V  V3  1  1.00000000  0.33232000  0.22759000  1
  Zn  Zn4  1  0.50035500  0.00018700  0.34156200  1
  Cr  Cr5  1  0.49828600  0.50109800  0.45150900  1
  Fe  Fe6  1  0.00000000  1.00000000  0.22759000  1
  Co  Co7  1  0.99991400  0.50054000  0.33624700  1
  Cu  Cu8  1  0.50000000  0.16768000  0.00000000  1
  Ni  Ni9  1  0.00000000  0.66768000  0.22759000  1
  Sb  Sb10  1  0.00000000  0.00000000  0.00000000  1
  Sb  Sb11  1  0.50000000  0.50000000  0.00000000  1
  Sb  Sb12  1  0.50000000  0.50000000  0.22759000  1
  Sb  Sb13  1  1.00000000  0.33232000  0.00000000  1
  Sb  Sb14  1  0.50000000  0.33232000  0.11379000  1
  Sb  Sb15  1  0.50013000  0.32760000  0.34303900  1
  Sb  Sb16  1  0.00032200  0.34032600  0.45719900  1
  Sb  Sb17  1  0.50000000  0.83232000  0.00000000  1
  Sb  Sb18  1  1.00000000  0.83232000  0.11379000  1
  Sb  Sb19  1  0.50000000  0.83232000  0.22759000  1
  Sb  Sb20  1  0.00056400  0.82889300  0.33670100  1
  Sb  Sb21  1  0.49640100  0.82527800  0.45657300  1
  Sb  Sb22  1  1.00000000  0.16768000  0.11379000  1
  Sb  Sb23  1  0.50000000  0.16768000  0.22759000  1
  Sb  Sb24  1  0.00036000  0.17110400  0.33777000  1
  Sb  Sb25  1  0.50003600  0.17797200  0.45630200  1
  Sb  Sb26  1  1.00000000  0.66768000  0.00000000  1
  Sb  Sb27  1  0.50000000  0.66768000  0.11379000  1
  Sb  Sb28  1  0.50045800  0.67355900  0.34256700  1
  Sb  Sb29  1  0.99775100  0.66493700  0.45684300  1
  Cl  Cl30  1  0.49456700  0.49802000  0.52859400  1
  O  O31  1  1.00000000  0.17164000  0.04494000  1
  O  O32  1  0.50000000  0.17164000  0.15874000  1
  O  O33  1  0.00019600  0.15525700  0.27065200  1
  O  O34  1  0.50072300  0.16593400  0.38668000  1
  O  O35  1  0.50000000  0.17164000  0.06885000  1
  O  O36  1  0.00000000  0.17164000  0.18264000  1
  O  O37  1  0.50101300  0.16982900  0.29624000  1
  O  O38  1  0.99809000  0.19046500  0.40792800  1
  O  O39  1  0.69747000  0.67164000  0.00000000  1
  O  O40  1  0.19747000  0.67164000  0.11379000  1
  O  O41  1  0.69747000  0.67164000  0.22759000  1
  O  O42  1  0.19831600  0.66771000  0.33933700  1
  O  O43  1  0.68466700  0.65726300  0.44820400  1
  O  O44  1  0.30253000  0.67164000  0.00000000  1
  O  O45  1  0.80253000  0.67164000  0.11379000  1
  O  O46  1  0.30253000  0.67164000  0.22759000  1
  O  O47  1  0.80210700  0.66791900  0.33913700  1
  O  O48  1  0.31113200  0.65677700  0.44784300  1
  O  O49  1  0.69747000  0.32836000  0.00000000  1
  O  O50  1  0.19747000  0.32836000  0.11379000  1
  O  O51  1  0.69747000  0.32836000  0.22759000  1
  O  O52  1  0.19816300  0.33227000  0.33912400  1
  O  O53  1  0.68650700  0.34502800  0.44748100  1
  O  O54  1  0.30253000  0.32836000  0.00000000  1
  O  O55  1  0.80253000  0.32836000  0.11379000  1
  O  O56  1  0.30253000  0.32836000  0.22759000  1
  O  O57  1  0.80212700  0.33225600  0.33883800  1
  O  O58  1  0.31223500  0.34538500  0.44617100  1
  O  O59  1  0.00000000  0.82836000  0.04494000  1
  O  O60  1  0.50000000  0.82836000  0.15874000  1
  O  O61  1  0.00021600  0.84468700  0.27066400  1
  O  O62  1  0.49933200  0.83533800  0.38717400  1
  O  O63  1  0.50000000  0.82836000  0.06885000  1
  O  O64  1  0.00000000  0.82836000  0.18264000  1
  O  O65  1  0.50081400  0.83192800  0.29687100  1
  O  O66  1  0.99766600  0.81218000  0.40739200  1
  O  O67  1  0.00000000  0.50000000  0.04332000  1
  O  O68  1  0.50000000  0.50000000  0.15711000  1
  O  O69  1  0.00049200  0.49998000  0.27169600  1
  O  O70  1  0.50100900  0.50165800  0.38314200  1
  O  O71  1  0.50000000  0.50000000  0.07048000  1
  O  O72  1  1.00000000  0.50000000  0.18427000  1
  O  O73  1  0.49972400  0.49838000  0.29761500  1
  O  O74  1  0.99820600  0.50136100  0.41152600  1
  O  O75  1  0.69034000  1.00000000  0.00000000  1
  O  O76  1  0.19034000  1.00000000  0.11379000  1
  O  O77  1  0.69034000  1.00000000  0.22759000  1
  O  O78  1  0.18641900  0.00114200  0.34775900  1
  O  O79  1  0.77330300  0.00422500  0.45568800  1
  O  O80  1  0.30966000  1.00000000  0.00000000  1
  O  O81  1  0.80966000  1.00000000  0.11379000  1
  O  O82  1  0.30966000  1.00000000  0.22759000  1
  O  O83  1  0.81482500  0.00075700  0.34889100  1
  O  O84  1  0.21350500  0.00061400  0.45645400  1
