# generated using pymatgen
data_MgTiMnVZnCrFeCoCuNiSb20ClO54
_symmetry_space_group_name_H-M   'P 1'
_cell_length_a   6.64134400
_cell_length_b   9.67555500
_cell_length_c   28.73465600
_cell_angle_alpha   89.79181800
_cell_angle_beta   89.98357600
_cell_angle_gamma   89.98285400
_symmetry_Int_Tables_number   1
_chemical_formula_structural   MgTiMnVZnCrFeCoCuNiSb20ClO54
_chemical_formula_sum
'Mg1 Ti1 Mn1 V1 Zn1 Cr1 Fe1 Co1 Cu1 Ni1 Sb20 Cl1 O54'
_cell_volume   1846.43898120
_cell_formula_units_Z   1
loop_
 _symmetry_equiv_pos_site_id
 _symmetry_equiv_pos_as_xyz
  1  'x, y, z'
loop_
 _atom_site_type_symbol
 _atom_site_label
 _atom_site_symmetry_multiplicity
 _atom_site_fract_x
 _atom_site_fract_y
 _atom_site_fract_z
 _atom_site_occupancy
  Mg  Mg0  1  1.00000000  0.33232000  0.22759000  1
  Ti  Ti1  1  0.00000000  0.66768000  0.00000000  1
  Mn  Mn2  1  0.00405500  0.00245200  0.43373600  1
  V  V3  1  0.50000000  0.33232000  0.11379000  1
  Zn  Zn4  1  0.49961100  0.00076600  0.34274500  1
  Cr  Cr5  1  0.49985800  0.50130500  0.45481600  1
  Fe  Fe6  1  1.00000000  0.83232000  0.11379000  1
  Co  Co7  1  0.00070500  0.33481000  0.44775600  1
  Cu  Cu8  1  1.00000000  0.33232000  0.00000000  1
  Ni  Ni9  1  1.00000000  0.00000000  0.22759000  1
  Sb  Sb10  1  0.00000000  0.00000000  0.00000000  1
  Sb  Sb11  1  0.50000000  1.00000000  0.11379000  1
  Sb  Sb12  1  0.50000000  0.50000000  0.00000000  1
  Sb  Sb13  1  0.00000000  0.50000000  0.11379000  1
  Sb  Sb14  1  0.50000000  0.50000000  0.22759000  1
  Sb  Sb15  1  0.00107000  0.50000500  0.34104400  1
  Sb  Sb16  1  0.50000000  0.66768000  0.11379000  1
  Sb  Sb17  1  1.00000000  0.66768000  0.22759000  1
  Sb  Sb18  1  0.50026700  0.67546600  0.35005700  1
  Sb  Sb19  1  0.99637200  0.65858400  0.45796300  1
  Sb  Sb20  1  0.50000000  0.16768000  0.00000000  1
  Sb  Sb21  1  1.00000000  0.16768000  0.11379000  1
  Sb  Sb22  1  0.50000000  0.16768000  0.22759000  1
  Sb  Sb23  1  0.99966100  0.15843300  0.33710700  1
  Sb  Sb24  1  0.50127100  0.19007100  0.46125100  1
  Sb  Sb25  1  0.50000000  0.83232000  0.00000000  1
  Sb  Sb26  1  0.50000000  0.83232000  0.22759000  1
  Sb  Sb27  1  0.99958300  0.83700200  0.33964900  1
  Sb  Sb28  1  0.49890500  0.81869500  0.46148500  1
  Sb  Sb29  1  0.49998200  0.32790900  0.34301200  1
  Cl  Cl30  1  0.51004900  0.55214900  0.53145100  1
  O  O31  1  1.00000000  0.82836000  0.04494000  1
  O  O32  1  0.50000000  0.82836000  0.15874000  1
  O  O33  1  0.99980400  0.84474300  0.27065200  1
  O  O34  1  0.49676400  0.84475900  0.39064700  1
  O  O35  1  0.50000000  0.82836000  0.06885000  1
  O  O36  1  1.00000000  0.82836000  0.18264000  1
  O  O37  1  0.50122100  0.82242700  0.29838600  1
  O  O38  1  0.00086700  0.81464400  0.40969400  1
  O  O39  1  0.30253000  0.32836000  0.00000000  1
  O  O40  1  0.80253000  0.32836000  0.11379000  1
  O  O41  1  0.30253000  0.32836000  0.22759000  1
  O  O42  1  0.80773200  0.33441500  0.34029600  1
  O  O43  1  0.29187400  0.34656400  0.45979800  1
  O  O44  1  0.69747000  0.32836000  0.00000000  1
  O  O45  1  0.19747000  0.32836000  0.11379000  1
  O  O46  1  0.69747000  0.32836000  0.22759000  1
  O  O47  1  0.19245800  0.33348100  0.33970200  1
  O  O48  1  0.70881100  0.34798900  0.45870600  1
  O  O49  1  0.30253000  0.67164000  0.00000000  1
  O  O50  1  0.80253000  0.67164000  0.11379000  1
  O  O51  1  0.30253000  0.67164000  0.22759000  1
  O  O52  1  0.80842400  0.66766500  0.33924900  1
  O  O53  1  0.31059300  0.65521600  0.44446600  1
  O  O54  1  0.69747000  0.67164000  0.00000000  1
  O  O55  1  0.19747000  0.67164000  0.11379000  1
  O  O56  1  0.69747000  0.67164000  0.22759000  1
  O  O57  1  0.19239500  0.66824500  0.33905500  1
  O  O58  1  0.68564400  0.65403500  0.44147800  1
  O  O59  1  1.00000000  0.17164000  0.04494000  1
  O  O60  1  0.50000000  0.17164000  0.15874000  1
  O  O61  1  0.99978400  0.15531300  0.27066400  1
  O  O62  1  0.49886600  0.17630200  0.38997400  1
  O  O63  1  0.50000000  0.17164000  0.06885000  1
  O  O64  1  1.00000000  0.17164000  0.18264000  1
  O  O65  1  0.50117600  0.16966600  0.29853300  1
  O  O66  1  0.00253400  0.17748800  0.40728500  1
  O  O67  1  0.00000000  0.50000000  0.04332000  1
  O  O68  1  0.50000000  0.50000000  0.15711000  1
  O  O69  1  0.99950800  0.50002000  0.27169600  1
  O  O70  1  0.49394200  0.48794900  0.38674400  1
  O  O71  1  0.50000000  0.50000000  0.07048000  1
  O  O72  1  1.00000000  0.50000000  0.18427000  1
  O  O73  1  0.50036500  0.50356000  0.29975900  1
  O  O74  1  0.00259500  0.50306400  0.41023100  1
  O  O75  1  0.30966000  1.00000000  0.00000000  1
  O  O76  1  0.80966000  1.00000000  0.11379000  1
  O  O77  1  0.30966000  1.00000000  0.22759000  1
  O  O78  1  0.80681600  0.99555200  0.34658600  1
  O  O79  1  0.23288400  0.99000500  0.46066500  1
  O  O80  1  0.69034000  1.00000000  1.00000000  1
  O  O81  1  0.19034000  1.00000000  0.11379000  1
  O  O82  1  0.69034000  1.00000000  0.22759000  1
  O  O83  1  0.19229700  0.99541400  0.34638900  1
  O  O84  1  0.78027600  0.99056700  0.46203100  1
