# generated using pymatgen
data_MgTiMnVZnCrFeCoCuNiSb20ClO54
_symmetry_space_group_name_H-M   'P 1'
_cell_length_a   6.64249600
_cell_length_b   9.57133300
_cell_length_c   29.02773700
_cell_angle_alpha   89.99941200
_cell_angle_beta   89.96878100
_cell_angle_gamma   89.97984600
_symmetry_Int_Tables_number   1
_chemical_formula_structural   MgTiMnVZnCrFeCoCuNiSb20ClO54
_chemical_formula_sum
'Mg1 Ti1 Mn1 V1 Zn1 Cr1 Fe1 Co1 Cu1 Ni1 Sb20 Cl1 O54'
_cell_volume   1845.51175589
_cell_formula_units_Z   1
loop_
 _symmetry_equiv_pos_site_id
 _symmetry_equiv_pos_as_xyz
  1  'x, y, z'
loop_
 _atom_site_type_symbol
 _atom_site_label
 _atom_site_symmetry_multiplicity
 _atom_site_fract_x
 _atom_site_fract_y
 _atom_site_fract_z
 _atom_site_occupancy
  Mg  Mg0  1  0.00000000  0.00000000  0.22759000  1
  Ti  Ti1  1  0.00000000  0.83232000  0.11379000  1
  Mn  Mn2  1  0.00095400  0.50618800  0.33686200  1
  V  V3  1  0.00094900  0.82612100  0.33353700  1
  Zn  Zn4  1  0.00167300  0.99511600  0.43623900  1
  Cr  Cr5  1  0.50045300  0.50158000  0.44819600  1
  Fe  Fe6  1  0.00000000  0.33232000  0.22759000  1
  Co  Co7  1  0.50000000  0.83232000  0.22759000  1
  Cu  Cu8  1  0.00000000  0.33232000  0.00000000  1
  Ni  Ni9  1  0.00000000  0.50000000  0.11379000  1
  Sb  Sb10  1  0.00000000  0.00000000  0.00000000  1
  Sb  Sb11  1  0.50000000  0.00000000  0.11379000  1
  Sb  Sb12  1  0.49973300  0.99736100  0.34149200  1
  Sb  Sb13  1  0.50000000  0.50000000  0.00000000  1
  Sb  Sb14  1  0.50000000  0.50000000  0.22759000  1
  Sb  Sb15  1  1.00000000  0.66768000  1.00000000  1
  Sb  Sb16  1  0.50000000  0.66768000  0.11379000  1
  Sb  Sb17  1  0.00000000  0.66768000  0.22759000  1
  Sb  Sb18  1  0.50117400  0.67545200  0.33963600  1
  Sb  Sb19  1  0.99932900  0.67339100  0.44885500  1
  Sb  Sb20  1  0.50000000  0.16768000  0.00000000  1
  Sb  Sb21  1  0.00000000  0.16768000  0.11379000  1
  Sb  Sb22  1  0.50000000  0.16768000  0.22759000  1
  Sb  Sb23  1  0.99960000  0.16747600  0.33622800  1
  Sb  Sb24  1  0.50204700  0.17137300  0.46288300  1
  Sb  Sb25  1  0.50000000  0.83232000  0.00000000  1
  Sb  Sb26  1  0.50145100  0.83047300  0.46357300  1
  Sb  Sb27  1  0.50000000  0.33232000  0.11379000  1
  Sb  Sb28  1  0.49940600  0.33214200  0.34618300  1
  Sb  Sb29  1  0.99916900  0.34040800  0.44938400  1
  Cl  Cl30  1  0.51149900  0.48728000  0.52430200  1
  O  O31  1  0.00000000  0.82836000  0.04494000  1
  O  O32  1  0.50000000  0.82836000  0.15874000  1
  O  O33  1  0.99980400  0.84474300  0.27065200  1
  O  O34  1  0.50028200  0.83635900  0.38662200  1
  O  O35  1  0.50000000  0.82836000  0.06885000  1
  O  O36  1  0.00000000  0.82836000  0.18264000  1
  O  O37  1  0.50207500  0.83861500  0.29603500  1
  O  O38  1  0.00003100  0.82014600  0.40043800  1
  O  O39  1  0.30253000  0.32836000  0.00000000  1
  O  O40  1  0.80253000  0.32836000  0.11379000  1
  O  O41  1  0.30253000  0.32836000  0.22759000  1
  O  O42  1  0.80156200  0.33175000  0.33902300  1
  O  O43  1  0.31734900  0.34971600  0.43931100  1
  O  O44  1  0.69747000  0.32836000  0.00000000  1
  O  O45  1  0.19747000  0.32836000  0.11379000  1
  O  O46  1  0.69747000  0.32836000  0.22759000  1
  O  O47  1  0.19751400  0.33177300  0.33832300  1
  O  O48  1  0.68548100  0.34445600  0.43822300  1
  O  O49  1  0.30253000  0.67164000  0.00000000  1
  O  O50  1  0.80253000  0.67164000  0.11379000  1
  O  O51  1  0.30253000  0.67164000  0.22759000  1
  O  O52  1  0.80813900  0.67488100  0.33553100  1
  O  O53  1  0.31316500  0.65622800  0.44531000  1
  O  O54  1  0.69747000  0.67164000  0.00000000  1
  O  O55  1  0.19747000  0.67164000  0.11379000  1
  O  O56  1  0.69747000  0.67164000  0.22759000  1
  O  O57  1  0.19389700  0.67668800  0.33501900  1
  O  O58  1  0.68314400  0.65004700  0.44122600  1
  O  O59  1  0.00000000  0.17164000  0.04494000  1
  O  O60  1  0.50000000  0.17164000  0.15874000  1
  O  O61  1  0.99978400  0.15531300  0.27066400  1
  O  O62  1  0.49608100  0.15742300  0.38695900  1
  O  O63  1  0.50000000  0.17164000  0.06885000  1
  O  O64  1  0.00000000  0.17164000  0.18264000  1
  O  O65  1  0.49995200  0.16973500  0.29939500  1
  O  O66  1  0.00526400  0.17862300  0.40519500  1
  O  O67  1  0.00000000  0.50000000  0.04332000  1
  O  O68  1  0.50000000  0.50000000  0.15711000  1
  O  O69  1  0.99950800  0.50002000  0.27169600  1
  O  O70  1  0.49257500  0.51020900  0.38108200  1
  O  O71  1  0.50000000  0.50000000  0.07048000  1
  O  O72  1  0.00000000  0.50000000  0.18427000  1
  O  O73  1  0.50112300  0.49835900  0.29711900  1
  O  O74  1  0.00369200  0.50550600  0.40493200  1
  O  O75  1  0.30966000  1.00000000  0.00000000  1
  O  O76  1  0.80966000  0.00000000  0.11379000  1
  O  O77  1  0.30966000  1.00000000  0.22759000  1
  O  O78  1  0.80802100  0.99650900  0.34133700  1
  O  O79  1  0.29071500  0.99609700  0.45345600  1
  O  O80  1  0.69034000  0.00000000  0.00000000  1
  O  O81  1  0.19034000  1.00000000  0.11379000  1
  O  O82  1  0.69034000  0.00000000  0.22759000  1
  O  O83  1  0.19124700  0.99573700  0.34097400  1
  O  O84  1  0.71233800  0.00310400  0.45291700  1
