# generated using pymatgen
data_MgTiMnVZnCrFeCoCuNiSb20ClO54
_symmetry_space_group_name_H-M   'P 1'
_cell_length_a   6.68816500
_cell_length_b   9.58801300
_cell_length_c   29.28232000
_cell_angle_alpha   90.06557100
_cell_angle_beta   89.99855200
_cell_angle_gamma   89.98934800
_symmetry_Int_Tables_number   1
_chemical_formula_structural   MgTiMnVZnCrFeCoCuNiSb20ClO54
_chemical_formula_sum
'Mg1 Ti1 Mn1 V1 Zn1 Cr1 Fe1 Co1 Cu1 Ni1 Sb20 Cl1 O54'
_cell_volume   1877.76302573
_cell_formula_units_Z   1
loop_
 _symmetry_equiv_pos_site_id
 _symmetry_equiv_pos_as_xyz
  1  'x, y, z'
loop_
 _atom_site_type_symbol
 _atom_site_label
 _atom_site_symmetry_multiplicity
 _atom_site_fract_x
 _atom_site_fract_y
 _atom_site_fract_z
 _atom_site_occupancy
  Mg  Mg0  1  0.50000000  0.16768000  0.00000000  1
  Ti  Ti1  1  1.00000000  0.33232000  0.00000000  1
  Mn  Mn2  1  0.00000000  0.00000000  0.00000000  1
  V  V3  1  0.50000000  0.50000000  0.00000000  1
  Zn  Zn4  1  0.99883800  0.32632200  0.44171000  1
  Cr  Cr5  1  0.49875900  0.49945200  0.44448200  1
  Fe  Fe6  1  0.49988200  0.34224000  0.33898000  1
  Co  Co7  1  0.50000000  0.00000000  0.11379000  1
  Cu  Cu8  1  0.00000000  1.00000000  0.22759000  1
  Ni  Ni9  1  0.50012900  0.65885500  0.34129900  1
  Sb  Sb10  1  0.50035000  0.99721600  0.33940700  1
  Sb  Sb11  1  0.99903000  0.00028600  0.45836600  1
  Sb  Sb12  1  1.00000000  0.50000000  0.11379000  1
  Sb  Sb13  1  0.50000000  0.50000000  0.22759000  1
  Sb  Sb14  1  0.99995800  0.50039800  0.34359400  1
  Sb  Sb15  1  0.50000000  0.33232000  0.11379000  1
  Sb  Sb16  1  1.00000000  0.33232000  0.22759000  1
  Sb  Sb17  1  0.50000000  0.83232000  0.00000000  1
  Sb  Sb18  1  1.00000000  0.83232000  0.11379000  1
  Sb  Sb19  1  0.50000000  0.83232000  0.22759000  1
  Sb  Sb20  1  0.00022600  0.82405200  0.33874200  1
  Sb  Sb21  1  0.49983100  0.80718900  0.45503900  1
  Sb  Sb22  1  1.00000000  0.16768000  0.11379000  1
  Sb  Sb23  1  0.50000000  0.16768000  0.22759000  1
  Sb  Sb24  1  0.99980800  0.16875500  0.33903300  1
  Sb  Sb25  1  0.49942100  0.19072400  0.44838900  1
  Sb  Sb26  1  1.00000000  0.66768000  0.00000000  1
  Sb  Sb27  1  0.50000000  0.66768000  0.11379000  1
  Sb  Sb28  1  1.00000000  0.66768000  0.22759000  1
  Sb  Sb29  1  0.00050400  0.66130400  0.45631000  1
  Cl  Cl30  1  0.49483100  0.56372000  0.52190100  1
  O  O31  1  1.00000000  0.17164000  0.04494000  1
  O  O32  1  0.50000000  0.17164000  0.15874000  1
  O  O33  1  0.00019600  0.15525700  0.27065200  1
  O  O34  1  0.50106500  0.17274000  0.38158700  1
  O  O35  1  0.50000000  0.17164000  0.06885000  1
  O  O36  1  0.00000000  0.17164000  0.18264000  1
  O  O37  1  0.49990700  0.17553900  0.29723600  1
  O  O38  1  0.99599100  0.14927000  0.40937900  1
  O  O39  1  0.69747000  0.67164000  0.00000000  1
  O  O40  1  0.19747000  0.67164000  0.11379000  1
  O  O41  1  0.69747000  0.67164000  0.22759000  1
  O  O42  1  0.19659200  0.66200100  0.33940200  1
  O  O43  1  0.69559500  0.65364800  0.43799400  1
  O  O44  1  0.30253000  0.67164000  0.00000000  1
  O  O45  1  0.80253000  0.67164000  0.11379000  1
  O  O46  1  0.30253000  0.67164000  0.22759000  1
  O  O47  1  0.80352700  0.66213600  0.33936000  1
  O  O48  1  0.30391000  0.65500900  0.43714100  1
  O  O49  1  0.69747000  0.32836000  0.00000000  1
  O  O50  1  0.19747000  0.32836000  0.11379000  1
  O  O51  1  0.69747000  0.32836000  0.22759000  1
  O  O52  1  0.19304900  0.33398100  0.34212000  1
  O  O53  1  0.69493500  0.34566800  0.45485000  1
  O  O54  1  0.30253000  0.32836000  0.00000000  1
  O  O55  1  0.80253000  0.32836000  0.11379000  1
  O  O56  1  0.30253000  0.32836000  0.22759000  1
  O  O57  1  0.80680000  0.33452300  0.34175700  1
  O  O58  1  0.30278600  0.34511700  0.45452800  1
  O  O59  1  0.00000000  0.82836000  0.04494000  1
  O  O60  1  0.50000000  0.82836000  0.15874000  1
  O  O61  1  0.00021600  0.84468700  0.27066400  1
  O  O62  1  0.50414600  0.84576300  0.38600600  1
  O  O63  1  0.50000000  0.82836000  0.06885000  1
  O  O64  1  0.00000000  0.82836000  0.18264000  1
  O  O65  1  0.49779600  0.82888700  0.29689500  1
  O  O66  1  0.99946600  0.83412700  0.41098300  1
  O  O67  1  1.00000000  0.50000000  0.04332000  1
  O  O68  1  0.50000000  0.50000000  0.15711000  1
  O  O69  1  0.00049200  0.49998000  0.27169600  1
  O  O70  1  0.50023300  0.48941400  0.37998400  1
  O  O71  1  0.50000000  0.50000000  0.07048000  1
  O  O72  1  0.00000000  0.50000000  0.18427000  1
  O  O73  1  0.49883700  0.49647600  0.29654900  1
  O  O74  1  0.99979000  0.50380700  0.41144700  1
  O  O75  1  0.69034000  0.00000000  0.00000000  1
  O  O76  1  0.19034000  0.00000000  0.11379000  1
  O  O77  1  0.69034000  0.00000000  0.22759000  1
  O  O78  1  0.19322100  0.99735300  0.34148700  1
  O  O79  1  0.69933000  0.05020700  0.46646100  1
  O  O80  1  0.30966000  0.00000000  0.00000000  1
  O  O81  1  0.80966000  0.00000000  0.11379000  1
  O  O82  1  0.30966000  0.00000000  0.22759000  1
  O  O83  1  0.80717100  0.99753600  0.34063000  1
  O  O84  1  0.29811900  0.04983900  0.46505100  1
