# generated using pymatgen
data_MgTiMnVZnCrFeCoCuNiSb20ClO54
_symmetry_space_group_name_H-M   'P 1'
_cell_length_a   6.65015000
_cell_length_b   9.73823300
_cell_length_c   29.49655400
_cell_angle_alpha   89.96313400
_cell_angle_beta   89.92893700
_cell_angle_gamma   89.94499300
_symmetry_Int_Tables_number   1
_chemical_formula_structural   MgTiMnVZnCrFeCoCuNiSb20ClO54
_chemical_formula_sum
'Mg1 Ti1 Mn1 V1 Zn1 Cr1 Fe1 Co1 Cu1 Ni1 Sb20 Cl1 O54'
_cell_volume   1910.21504152
_cell_formula_units_Z   1
loop_
 _symmetry_equiv_pos_site_id
 _symmetry_equiv_pos_as_xyz
  1  'x, y, z'
loop_
 _atom_site_type_symbol
 _atom_site_label
 _atom_site_symmetry_multiplicity
 _atom_site_fract_x
 _atom_site_fract_y
 _atom_site_fract_z
 _atom_site_occupancy
  Mg  Mg0  1  0.00136100  0.83138000  0.33817200  1
  Ti  Ti1  1  0.50000000  0.83232000  0.22759000  1
  Mn  Mn2  1  0.00012400  0.50092700  0.33569100  1
  V  V3  1  0.99668800  0.16769300  0.34239500  1
  Zn  Zn4  1  0.00000000  0.66768000  0.22759000  1
  Cr  Cr5  1  0.49766600  0.49343900  0.45100000  1
  Fe  Fe6  1  1.00000000  0.66768000  0.00000000  1
  Co  Co7  1  0.00000000  0.33232000  0.00000000  1
  Cu  Cu8  1  0.99787800  0.00053900  0.43196300  1
  Ni  Ni9  1  0.49813700  0.18053800  0.44553100  1
  Sb  Sb10  1  0.00000000  0.00000000  0.00000000  1
  Sb  Sb11  1  0.50000000  0.00000000  0.11379000  1
  Sb  Sb12  1  0.00000000  0.00000000  0.22759000  1
  Sb  Sb13  1  0.49885700  0.00157500  0.33965600  1
  Sb  Sb14  1  0.50000000  0.50000000  0.00000000  1
  Sb  Sb15  1  1.00000000  0.50000000  0.11379000  1
  Sb  Sb16  1  0.50000000  0.50000000  0.22759000  1
  Sb  Sb17  1  0.50000000  0.33232000  0.11379000  1
  Sb  Sb18  1  0.00000000  0.33232000  0.22759000  1
  Sb  Sb19  1  0.49785800  0.33129500  0.34233900  1
  Sb  Sb20  1  0.99692000  0.33530700  0.44841100  1
  Sb  Sb21  1  0.50000000  0.83232000  0.00000000  1
  Sb  Sb22  1  0.00000000  0.83232000  0.11379000  1
  Sb  Sb23  1  0.49777800  0.87329800  0.45382600  1
  Sb  Sb24  1  0.50000000  0.16768000  0.00000000  1
  Sb  Sb25  1  0.00000000  0.16768000  0.11379000  1
  Sb  Sb26  1  0.50000000  0.16768000  0.22759000  1
  Sb  Sb27  1  0.50000000  0.66768000  0.11379000  1
  Sb  Sb28  1  0.50083200  0.66300200  0.34006800  1
  Sb  Sb29  1  0.00051200  0.65794300  0.44899900  1
  Cl  Cl30  1  0.48987200  0.48088500  0.52525900  1
  O  O31  1  0.00000000  0.17164000  0.04494000  1
  O  O32  1  0.50000000  0.17164000  0.15874000  1
  O  O33  1  0.00019600  0.15525700  0.27065200  1
  O  O34  1  0.49898100  0.16606700  0.38118400  1
  O  O35  1  0.50000000  0.17164000  0.06885000  1
  O  O36  1  0.00000000  0.17164000  0.18264000  1
  O  O37  1  0.49845800  0.16937900  0.29498800  1
  O  O38  1  0.99866000  0.18126800  0.40307700  1
  O  O39  1  0.69747000  0.67164000  0.00000000  1
  O  O40  1  0.19747000  0.67164000  0.11379000  1
  O  O41  1  0.69747000  0.67164000  0.22759000  1
  O  O42  1  0.20470000  0.65806100  0.33784900  1
  O  O43  1  0.68480300  0.61545800  0.44561500  1
  O  O44  1  0.30253000  0.67164000  0.00000000  1
  O  O45  1  0.80253000  0.67164000  0.11379000  1
  O  O46  1  0.30253000  0.67164000  0.22759000  1
  O  O47  1  0.79789800  0.65764500  0.33768200  1
  O  O48  1  0.31002600  0.61908000  0.44476200  1
  O  O49  1  0.69747000  0.32836000  0.00000000  1
  O  O50  1  0.19747000  0.32836000  0.11379000  1
  O  O51  1  0.69747000  0.32836000  0.22759000  1
  O  O52  1  0.18917700  0.32375400  0.33561400  1
  O  O53  1  0.67741100  0.33663900  0.44382400  1
  O  O54  1  0.30253000  0.32836000  0.00000000  1
  O  O55  1  0.80253000  0.32836000  0.11379000  1
  O  O56  1  0.30253000  0.32836000  0.22759000  1
  O  O57  1  0.80800100  0.32017500  0.33541100  1
  O  O58  1  0.32068700  0.33918400  0.44261500  1
  O  O59  1  0.00000000  0.82836000  0.04494000  1
  O  O60  1  0.50000000  0.82836000  0.15874000  1
  O  O61  1  0.00021600  0.84468700  0.27066400  1
  O  O62  1  0.50079900  0.83813400  0.38347400  1
  O  O63  1  0.50000000  0.82836000  0.06885000  1
  O  O64  1  0.00000000  0.82836000  0.18264000  1
  O  O65  1  0.50177200  0.83827900  0.29549400  1
  O  O66  1  0.99944600  0.81592300  0.40904300  1
  O  O67  1  1.00000000  0.50000000  0.04332000  1
  O  O68  1  0.50000000  0.50000000  0.15711000  1
  O  O69  1  0.00049200  0.49998000  0.27169600  1
  O  O70  1  0.50161900  0.49474400  0.38158600  1
  O  O71  1  0.50000000  0.50000000  0.07048000  1
  O  O72  1  0.00000000  0.50000000  0.18427000  1
  O  O73  1  0.50149700  0.48940200  0.29626700  1
  O  O74  1  0.99618700  0.49458700  0.40314300  1
  O  O75  1  0.69034000  1.00000000  0.00000000  1
  O  O76  1  0.19034000  0.00000000  0.11379000  1
  O  O77  1  0.69034000  1.00000000  0.22759000  1
  O  O78  1  0.19547600  0.01436700  0.33959200  1
  O  O79  1  0.69670300  0.02706700  0.44952600  1
  O  O80  1  0.30966000  0.00000000  0.00000000  1
  O  O81  1  0.80966000  1.00000000  0.11379000  1
  O  O82  1  0.30966000  0.00000000  0.22759000  1
  O  O83  1  0.80368600  0.01500500  0.33956700  1
  O  O84  1  0.29903900  0.02729200  0.44971500  1
