# generated using pymatgen
data_MgTiMnVZnCrFeCoCuNiSb20ClO54
_symmetry_space_group_name_H-M   'P 1'
_cell_length_a   6.61247200
_cell_length_b   9.68854100
_cell_length_c   29.35867800
_cell_angle_alpha   90.13059500
_cell_angle_beta   89.94209900
_cell_angle_gamma   89.96850700
_symmetry_Int_Tables_number   1
_chemical_formula_structural   MgTiMnVZnCrFeCoCuNiSb20ClO54
_chemical_formula_sum
'Mg1 Ti1 Mn1 V1 Zn1 Cr1 Fe1 Co1 Cu1 Ni1 Sb20 Cl1 O54'
_cell_volume   1880.86362368
_cell_formula_units_Z   1
loop_
 _symmetry_equiv_pos_site_id
 _symmetry_equiv_pos_as_xyz
  1  'x, y, z'
loop_
 _atom_site_type_symbol
 _atom_site_label
 _atom_site_symmetry_multiplicity
 _atom_site_fract_x
 _atom_site_fract_y
 _atom_site_fract_z
 _atom_site_occupancy
  Mg  Mg0  1  0.50372400  0.83663500  0.55228300  1
  Ti  Ti1  1  0.50000000  0.16768000  0.77241000  1
  Mn  Mn2  1  0.00150800  0.83048000  0.65701600  1
  V  V3  1  0.00000000  0.33232000  0.00000000  1
  Zn  Zn4  1  0.50186200  0.66712300  0.65135500  1
  Cr  Cr5  1  0.49029600  0.50373700  0.54861100  1
  Fe  Fe6  1  0.49956900  0.17010500  0.55101700  1
  Co  Co7  1  1.00000000  0.16768000  0.88621000  1
  Cu  Cu8  1  0.00000000  0.00000000  0.00000000  1
  Ni  Ni9  1  0.00000000  0.66768000  0.00000000  1
  Sb  Sb10  1  0.50000000  0.00000000  0.88621000  1
  Sb  Sb11  1  1.00000000  0.00000000  0.77241000  1
  Sb  Sb12  1  0.50102600  0.99245600  0.66054000  1
  Sb  Sb13  1  0.00033900  0.99919800  0.54046800  1
  Sb  Sb14  1  0.50000000  0.50000000  0.00000000  1
  Sb  Sb15  1  1.00000000  0.50000000  0.88621000  1
  Sb  Sb16  1  0.50000000  0.50000000  0.77241000  1
  Sb  Sb17  1  0.00016100  0.52486300  0.65243200  1
  Sb  Sb18  1  0.50000000  0.66768000  0.88621000  1
  Sb  Sb19  1  1.00000000  0.66768000  0.77241000  1
  Sb  Sb20  1  0.99179800  0.66859800  0.53672900  1
  Sb  Sb21  1  0.50000000  0.16768000  0.00000000  1
  Sb  Sb22  1  0.00050000  0.15774600  0.65745500  1
  Sb  Sb23  1  0.50000000  0.83232000  0.00000000  1
  Sb  Sb24  1  0.00000000  0.83232000  0.88621000  1
  Sb  Sb25  1  0.50000000  0.83232000  0.77241000  1
  Sb  Sb26  1  0.50000000  0.33232000  0.88621000  1
  Sb  Sb27  1  1.00000000  0.33232000  0.77241000  1
  Sb  Sb28  1  0.50138700  0.33071200  0.65807600  1
  Sb  Sb29  1  0.99807700  0.31967600  0.53752600  1
  Cl  Cl30  1  0.48950200  0.48714900  0.47262700  1
  O  O31  1  0.00000000  0.82836000  0.95506000  1
  O  O32  1  0.50000000  0.82836000  0.84126000  1
  O  O33  1  0.00019600  0.84474300  0.72934800  1
  O  O34  1  0.50255600  0.84664100  0.61743100  1
  O  O35  1  0.50000000  0.82836000  0.93115000  1
  O  O36  1  0.00000000  0.82836000  0.81736000  1
  O  O37  1  0.50073900  0.83848900  0.70570100  1
  O  O38  1  0.00019500  0.83435700  0.58375700  1
  O  O39  1  0.69747000  0.32836000  0.00000000  1
  O  O40  1  0.19747000  0.32836000  0.88621000  1
  O  O41  1  0.69747000  0.32836000  0.77241000  1
  O  O42  1  0.19948100  0.31165600  0.66270800  1
  O  O43  1  0.68047500  0.31924700  0.54967900  1
  O  O44  1  0.30253000  0.32836000  0.00000000  1
  O  O45  1  0.80253000  0.32836000  0.88621000  1
  O  O46  1  0.30253000  0.32836000  0.77241000  1
  O  O47  1  0.80287700  0.31224700  0.66385600  1
  O  O48  1  0.31434300  0.32069100  0.55105000  1
  O  O49  1  0.69747000  0.67164000  0.00000000  1
  O  O50  1  0.19747000  0.67164000  0.88621000  1
  O  O51  1  0.69747000  0.67164000  0.77241000  1
  O  O52  1  0.19216400  0.69145900  0.65815500  1
  O  O53  1  0.68794600  0.66064200  0.54794200  1
  O  O54  1  0.30253000  0.67164000  0.00000000  1
  O  O55  1  0.80253000  0.67164000  0.88621000  1
  O  O56  1  0.30253000  0.67164000  0.77241000  1
  O  O57  1  0.81041300  0.69177800  0.65860300  1
  O  O58  1  0.31544800  0.65053900  0.55170000  1
  O  O59  1  0.00000000  0.17164000  0.95506000  1
  O  O60  1  0.50000000  0.17164000  0.84126000  1
  O  O61  1  0.00021600  0.15531300  0.72933600  1
  O  O62  1  0.50325500  0.15866800  0.61926000  1
  O  O63  1  0.50000000  0.17164000  0.93115000  1
  O  O64  1  1.00000000  0.17164000  0.81736000  1
  O  O65  1  0.50012500  0.15917600  0.70591200  1
  O  O66  1  0.99716700  0.16129100  0.58872200  1
  O  O67  1  0.00000000  0.50000000  0.95668000  1
  O  O68  1  0.50000000  0.50000000  0.84289000  1
  O  O69  1  0.00049200  0.50002000  0.72830400  1
  O  O70  1  0.51115800  0.48583100  0.61443500  1
  O  O71  1  0.50000000  0.50000000  0.92952000  1
  O  O72  1  0.00000000  0.50000000  0.81573000  1
  O  O73  1  0.49969300  0.49000400  0.70135000  1
  O  O74  1  0.99674600  0.49263400  0.57599000  1
  O  O75  1  0.69034000  1.00000000  0.00000000  1
  O  O76  1  0.19034000  0.00000000  0.88621000  1
  O  O77  1  0.69034000  0.00000000  0.77241000  1
  O  O78  1  0.19023400  0.99490900  0.66000700  1
  O  O79  1  0.68357600  0.02567100  0.54330100  1
  O  O80  1  0.30966000  1.00000000  0.00000000  1
  O  O81  1  0.80966000  0.00000000  0.88621000  1
  O  O82  1  0.30966000  0.00000000  0.77241000  1
  O  O83  1  0.81195100  0.99448800  0.66006900  1
  O  O84  1  0.31545600  0.02518300  0.54392100  1
