# generated using pymatgen
data_MgTiMnVZnCrFeCoCuNiSb20ClO54
_symmetry_space_group_name_H-M   'P 1'
_cell_length_a   6.72510900
_cell_length_b   9.51637200
_cell_length_c   29.39485800
_cell_angle_alpha   89.96608300
_cell_angle_beta   89.98338400
_cell_angle_gamma   89.99980100
_symmetry_Int_Tables_number   1
_chemical_formula_structural   MgTiMnVZnCrFeCoCuNiSb20ClO54
_chemical_formula_sum
'Mg1 Ti1 Mn1 V1 Zn1 Cr1 Fe1 Co1 Cu1 Ni1 Sb20 Cl1 O54'
_cell_volume   1881.23049641
_cell_formula_units_Z   1
loop_
 _symmetry_equiv_pos_site_id
 _symmetry_equiv_pos_as_xyz
  1  'x, y, z'
loop_
 _atom_site_type_symbol
 _atom_site_label
 _atom_site_symmetry_multiplicity
 _atom_site_fract_x
 _atom_site_fract_y
 _atom_site_fract_z
 _atom_site_occupancy
  Mg  Mg0  1  1.00000000  0.50000000  0.88621000  1
  Ti  Ti1  1  0.50080655  0.65230124  0.66082641  1
  Mn  Mn2  1  0.50041989  0.34382951  0.65434185  1
  V  V3  1  0.49939839  0.82386684  0.55878028  1
  Zn  Zn4  1  0.00019393  0.17322843  0.66039284  1
  Cr  Cr5  1  0.49748253  0.50814189  0.55031499  1
  Fe  Fe6  1  0.50000000  0.33232000  0.88621000  1
  Co  Co7  1  1.00000000  1.00000000  0.77241000  1
  Cu  Cu8  1  0.99676641  0.33392143  0.56402739  1
  Ni  Ni9  1  0.50000000  0.16768000  0.00000000  1
  Sb  Sb10  1  0.00000000  0.00000000  0.00000000  1
  Sb  Sb11  1  0.50000000  0.00000000  0.88621000  1
  Sb  Sb12  1  0.50048688  0.00229534  0.66091083  1
  Sb  Sb13  1  0.99762935  0.00028531  0.54433051  1
  Sb  Sb14  1  0.50000000  0.50000000  0.00000000  1
  Sb  Sb15  1  0.50000000  0.50000000  0.77241000  1
  Sb  Sb16  1  0.00028590  0.49609912  0.65675851  1
  Sb  Sb17  1  0.00000000  0.66768000  0.00000000  1
  Sb  Sb18  1  0.50000000  0.66768000  0.88621000  1
  Sb  Sb19  1  1.00000000  0.66768000  0.77241000  1
  Sb  Sb20  1  0.99953028  0.66818742  0.54248035  1
  Sb  Sb21  1  1.00000000  0.16768000  0.88621000  1
  Sb  Sb22  1  0.50000000  0.16768000  0.77241000  1
  Sb  Sb23  1  0.49660198  0.19626717  0.54630875  1
  Sb  Sb24  1  0.50000000  0.83232000  0.00000000  1
  Sb  Sb25  1  1.00000000  0.83232000  0.88621000  1
  Sb  Sb26  1  0.50000000  0.83232000  0.77241000  1
  Sb  Sb27  1  0.99995003  0.83675812  0.66092997  1
  Sb  Sb28  1  0.00000000  0.33232000  0.00000000  1
  Sb  Sb29  1  1.00000000  0.33232000  0.77241000  1
  Cl  Cl30  1  0.49135310  0.49122961  0.47387410  1
  O  O31  1  1.00000000  0.82836000  0.95506000  1
  O  O32  1  0.50000000  0.82836000  0.84126000  1
  O  O33  1  0.00019600  0.84474300  0.72934800  1
  O  O34  1  0.50336895  0.82559234  0.62019893  1
  O  O35  1  0.50000000  0.82836000  0.93115000  1
  O  O36  1  1.00000000  0.82836000  0.81736000  1
  O  O37  1  0.49980397  0.82974996  0.70410711  1
  O  O38  1  0.99595110  0.82847119  0.59078116  1
  O  O39  1  0.69747000  0.32836000  0.00000000  1
  O  O40  1  0.19747000  0.32836000  0.88621000  1
  O  O41  1  0.69747000  0.32836000  0.77241000  1
  O  O42  1  0.20359854  0.34754724  0.65803662  1
  O  O43  1  0.69596587  0.35238987  0.55352808  1
  O  O44  1  0.30253000  0.32836000  0.00000000  1
  O  O45  1  0.80253000  0.32836000  0.88621000  1
  O  O46  1  0.30253000  0.32836000  0.77241000  1
  O  O47  1  0.79699355  0.34752768  0.65832949  1
  O  O48  1  0.29888858  0.35283057  0.55459633  1
  O  O49  1  0.69747000  0.67164000  0.00000000  1
  O  O50  1  0.19747000  0.67164000  0.88621000  1
  O  O51  1  0.69747000  0.67164000  0.77241000  1
  O  O52  1  0.19237659  0.66797049  0.66246195  1
  O  O53  1  0.67590978  0.67042384  0.54827129  1
  O  O54  1  0.30253000  0.67164000  0.00000000  1
  O  O55  1  0.80253000  0.67164000  0.88621000  1
  O  O56  1  0.30253000  0.67164000  0.77241000  1
  O  O57  1  0.80822489  0.66743958  0.66324023  1
  O  O58  1  0.31945841  0.67021195  0.54995888  1
  O  O59  1  1.00000000  0.17164000  0.95506000  1
  O  O60  1  0.50000000  0.17164000  0.84126000  1
  O  O61  1  0.00021600  0.15531300  0.72933600  1
  O  O62  1  0.50231579  0.16100920  0.61601839  1
  O  O63  1  0.50000000  0.17164000  0.93115000  1
  O  O64  1  1.00000000  0.17164000  0.81736000  1
  O  O65  1  0.49891379  0.16751406  0.70375722  1
  O  O66  1  0.99895883  0.14728785  0.58953787  1
  O  O67  1  1.00000000  0.50000000  0.95668000  1
  O  O68  1  0.50000000  0.50000000  0.84289000  1
  O  O69  1  0.00049200  0.50002000  0.72830400  1
  O  O70  1  0.50165304  0.52550092  0.61626218  1
  O  O71  1  0.50000000  0.50000000  0.92952000  1
  O  O72  1  1.00000000  0.50000000  0.81573000  1
  O  O73  1  0.49931319  0.50484730  0.70393785  1
  O  O74  1  0.99529964  0.52225225  0.58975719  1
  O  O75  1  0.69034000  1.00000000  0.00000000  1
  O  O76  1  0.19034000  0.00000000  0.88621000  1
  O  O77  1  0.69034000  1.00000000  0.77241000  1
  O  O78  1  0.20100801  0.99116769  0.65809393  1
  O  O79  1  0.68570772  0.94827756  0.54756958  1
  O  O80  1  0.30966000  0.00000000  0.00000000  1
  O  O81  1  0.80966000  1.00000000  0.88621000  1
  O  O82  1  0.30966000  0.00000000  0.77241000  1
  O  O83  1  0.80020162  0.99225465  0.65908816  1
  O  O84  1  0.30996776  0.94628711  0.54823084  1
