# generated using pymatgen
data_MgTiMnVZnCrFeCoCuNiSb20ClO54
_symmetry_space_group_name_H-M   'P 1'
_cell_length_a   6.72735700
_cell_length_b   9.71065700
_cell_length_c   29.48593200
_cell_angle_alpha   90.02929000
_cell_angle_beta   89.87992400
_cell_angle_gamma   89.60815600
_symmetry_Int_Tables_number   1
_chemical_formula_structural   MgTiMnVZnCrFeCoCuNiSb20ClO54
_chemical_formula_sum
'Mg1 Ti1 Mn1 V1 Zn1 Cr1 Fe1 Co1 Cu1 Ni1 Sb20 Cl1 O54'
_cell_volume   1926.17959903
_cell_formula_units_Z   1
loop_
 _symmetry_equiv_pos_site_id
 _symmetry_equiv_pos_as_xyz
  1  'x, y, z'
loop_
 _atom_site_type_symbol
 _atom_site_label
 _atom_site_symmetry_multiplicity
 _atom_site_fract_x
 _atom_site_fract_y
 _atom_site_fract_z
 _atom_site_occupancy
  Mg  Mg0  1  0.04161300  0.32828300  0.55434200  1
  Ti  Ti1  1  0.93122500  0.01351500  0.56330400  1
  Mn  Mn2  1  0.00416100  0.66188400  0.55786100  1
  V  V3  1  0.00000000  0.16768000  0.88621000  1
  Zn  Zn4  1  0.50347900  0.00612900  0.66259000  1
  Cr  Cr5  1  0.52614400  0.47996400  0.54511300  1
  Fe  Fe6  1  0.50000000  0.16768000  0.77241000  1
  Co  Co7  1  0.54723100  0.21762900  0.55296700  1
  Cu  Cu8  1  0.00000000  0.00000000  0.77241000  1
  Ni  Ni9  1  0.00000000  0.00000000  0.00000000  1
  Sb  Sb10  1  0.50000000  1.00000000  0.88621000  1
  Sb  Sb11  1  0.50000000  0.50000000  1.00000000  1
  Sb  Sb12  1  0.00000000  0.50000000  0.88621000  1
  Sb  Sb13  1  0.50000000  0.50000000  0.77241000  1
  Sb  Sb14  1  0.00329300  0.49829700  0.65704100  1
  Sb  Sb15  1  0.00000000  0.66768000  0.00000000  1
  Sb  Sb16  1  0.50000000  0.66768000  0.88621000  1
  Sb  Sb17  1  0.00000000  0.66768000  0.77241000  1
  Sb  Sb18  1  0.50316100  0.66855700  0.65471000  1
  Sb  Sb19  1  0.50000000  0.16768000  1.00000000  1
  Sb  Sb20  1  0.00728800  0.16109900  0.66297500  1
  Sb  Sb21  1  0.50000000  0.83232000  1.00000000  1
  Sb  Sb22  1  0.00000000  0.83232000  0.88621000  1
  Sb  Sb23  1  0.50000000  0.83232000  0.77241000  1
  Sb  Sb24  1  0.00357500  0.84210900  0.66146300  1
  Sb  Sb25  1  0.48887700  0.79788700  0.54249700  1
  Sb  Sb26  1  0.00000000  0.33232000  0.00000000  1
  Sb  Sb27  1  0.50000000  0.33232000  0.88621000  1
  Sb  Sb28  1  0.00000000  0.33232000  0.77241000  1
  Sb  Sb29  1  0.50552800  0.32498500  0.66047800  1
  Cl  Cl30  1  0.51453600  0.51598400  0.47095200  1
  O  O31  1  1.00000000  0.82836000  0.95506000  1
  O  O32  1  0.50000000  0.82836000  0.84126000  1
  O  O33  1  0.00019600  0.84474300  0.72934800  1
  O  O34  1  0.49683100  0.82638300  0.61210400  1
  O  O35  1  0.50000000  0.82836000  0.93115000  1
  O  O36  1  0.00000000  0.82836000  0.81736000  1
  O  O37  1  0.50308300  0.81736400  0.70237300  1
  O  O38  1  0.99348400  0.83503200  0.59272100  1
  O  O39  1  0.69747000  0.32836000  1.00000000  1
  O  O40  1  0.19747000  0.32836000  0.88621000  1
  O  O41  1  0.69747000  0.32836000  0.77241000  1
  O  O42  1  0.19753700  0.33227300  0.66393000  1
  O  O43  1  0.73674500  0.36076300  0.54477100  1
  O  O44  1  0.30253000  0.32836000  1.00000000  1
  O  O45  1  0.80253000  0.32836000  0.88621000  1
  O  O46  1  0.30253000  0.32836000  0.77241000  1
  O  O47  1  0.81292200  0.33284800  0.66329200  1
  O  O48  1  0.33665100  0.34100100  0.54434200  1
  O  O49  1  0.69747000  0.67164000  1.00000000  1
  O  O50  1  0.19747000  0.67164000  0.88621000  1
  O  O51  1  0.69747000  0.67164000  0.77241000  1
  O  O52  1  0.19557000  0.66708300  0.66023400  1
  O  O53  1  0.70706000  0.65307200  0.55052700  1
  O  O54  1  0.30253000  0.67164000  1.00000000  1
  O  O55  1  0.80253000  0.67164000  0.88621000  1
  O  O56  1  0.30253000  0.67164000  0.77241000  1
  O  O57  1  0.81048200  0.66688800  0.66063300  1
  O  O58  1  0.29592800  0.64143900  0.55051700  1
  O  O59  1  0.00000000  0.17164000  0.95506000  1
  O  O60  1  0.50000000  0.17164000  0.84126000  1
  O  O61  1  0.00021600  0.15531300  0.72933600  1
  O  O62  1  0.50464700  0.17787900  0.61600100  1
  O  O63  1  0.50000000  0.17164000  0.93115000  1
  O  O64  1  0.00000000  0.17164000  0.81736000  1
  O  O65  1  0.50463300  0.17741200  0.70568800  1
  O  O66  1  0.01198000  0.17410600  0.59660900  1
  O  O67  1  0.00000000  0.50000000  0.95668000  1
  O  O68  1  0.50000000  0.50000000  0.84289000  1
  O  O69  1  0.00049200  0.50002000  0.72830400  1
  O  O70  1  0.51146500  0.49073100  0.61586500  1
  O  O71  1  0.50000000  0.50000000  0.92952000  1
  O  O72  1  0.00000000  0.50000000  0.81573000  1
  O  O73  1  0.50174700  0.50410700  0.70044600  1
  O  O74  1  0.01439100  0.49515900  0.59168900  1
  O  O75  1  0.69034000  0.00000000  1.00000000  1
  O  O76  1  0.19034000  1.00000000  0.88621000  1
  O  O77  1  0.69034000  0.00000000  0.77241000  1
  O  O78  1  0.19885200  0.99998500  0.66016600  1
  O  O79  1  0.67623700  0.05038100  0.54329400  1
  O  O80  1  0.30966000  1.00000000  1.00000000  1
  O  O81  1  0.80966000  0.00000000  0.88621000  1
  O  O82  1  0.30966000  1.00000000  0.77241000  1
  O  O83  1  0.81036700  0.00349000  0.65659100  1
  O  O84  1  0.09003100  0.02390900  0.51985000  1
