# generated using pymatgen
data_MgTiMnVZnCrFeCoCuNiSb20ClO54
_symmetry_space_group_name_H-M   'P 1'
_cell_length_a   6.67086600
_cell_length_b   9.52163200
_cell_length_c   28.73529600
_cell_angle_alpha   90.11204200
_cell_angle_beta   89.93201500
_cell_angle_gamma   89.95089300
_symmetry_Int_Tables_number   1
_chemical_formula_structural   MgTiMnVZnCrFeCoCuNiSb20ClO54
_chemical_formula_sum
'Mg1 Ti1 Mn1 V1 Zn1 Cr1 Fe1 Co1 Cu1 Ni1 Sb20 Cl1 O54'
_cell_volume   1825.18961081
_cell_formula_units_Z   1
loop_
 _symmetry_equiv_pos_site_id
 _symmetry_equiv_pos_as_xyz
  1  'x, y, z'
loop_
 _atom_site_type_symbol
 _atom_site_label
 _atom_site_symmetry_multiplicity
 _atom_site_fract_x
 _atom_site_fract_y
 _atom_site_fract_z
 _atom_site_occupancy
  Mg  Mg0  1  0.50051200  0.66811700  0.34342200  1
  Ti  Ti1  1  0.00106900  0.82453600  0.34478600  1
  Mn  Mn2  1  1.00000000  0.50000000  0.11379000  1
  V  V3  1  1.00000000  0.33232000  0.22759000  1
  Zn  Zn4  1  0.50000000  0.66768000  0.11379000  1
  Cr  Cr5  1  0.49882000  0.50377500  0.45175800  1
  Fe  Fe6  1  0.00000000  0.33232000  0.00000000  1
  Co  Co7  1  0.50000000  0.33232000  0.11379000  1
  Cu  Cu8  1  0.50000000  0.16768000  0.22759000  1
  Ni  Ni9  1  0.50308400  0.82347400  0.44956300  1
  Sb  Sb10  1  0.00000000  0.00000000  0.00000000  1
  Sb  Sb11  1  0.50000000  1.00000000  0.11379000  1
  Sb  Sb12  1  1.00000000  0.00000000  0.22759000  1
  Sb  Sb13  1  0.50030500  0.99546300  0.34320200  1
  Sb  Sb14  1  0.00229200  0.99839500  0.46048100  1
  Sb  Sb15  1  0.50000000  0.50000000  0.00000000  1
  Sb  Sb16  1  0.50000000  0.50000000  0.22759000  1
  Sb  Sb17  1  0.00086100  0.51566200  0.34461200  1
  Sb  Sb18  1  0.00000000  0.66768000  0.00000000  1
  Sb  Sb19  1  0.00000000  0.66768000  0.22759000  1
  Sb  Sb20  1  0.99553700  0.67890300  0.46434500  1
  Sb  Sb21  1  0.50000000  0.16768000  0.00000000  1
  Sb  Sb22  1  1.00000000  0.16768000  0.11379000  1
  Sb  Sb23  1  0.99984000  0.16019900  0.34151900  1
  Sb  Sb24  1  0.50182700  0.16647900  0.46439200  1
  Sb  Sb25  1  0.50000000  0.83232000  0.00000000  1
  Sb  Sb26  1  0.00000000  0.83232000  0.11379000  1
  Sb  Sb27  1  0.50000000  0.83232000  0.22759000  1
  Sb  Sb28  1  0.49976100  0.32994800  0.34356100  1
  Sb  Sb29  1  0.99743200  0.33313200  0.46449100  1
  Cl  Cl30  1  0.51650700  0.48463000  0.52981900  1
  O  O31  1  0.00000000  0.82836000  0.04494000  1
  O  O32  1  0.50000000  0.82836000  0.15874000  1
  O  O33  1  0.99980400  0.84474300  0.27065200  1
  O  O34  1  0.49657900  0.83807600  0.38420000  1
  O  O35  1  0.50000000  0.82836000  0.06885000  1
  O  O36  1  0.00000000  0.82836000  0.18264000  1
  O  O37  1  0.50138500  0.83678000  0.29607700  1
  O  O38  1  0.00492900  0.83375600  0.41378900  1
  O  O39  1  0.30253000  0.32836000  1.00000000  1
  O  O40  1  0.80253000  0.32836000  0.11379000  1
  O  O41  1  0.30253000  0.32836000  0.22759000  1
  O  O42  1  0.80263200  0.31767100  0.34092900  1
  O  O43  1  0.30539000  0.34299100  0.44937300  1
  O  O44  1  0.69747000  0.32836000  1.00000000  1
  O  O45  1  0.19747000  0.32836000  0.11379000  1
  O  O46  1  0.69747000  0.32836000  0.22759000  1
  O  O47  1  0.19679100  0.31728800  0.34045900  1
  O  O48  1  0.69092800  0.34758800  0.44594400  1
  O  O49  1  0.30253000  0.67164000  1.00000000  1
  O  O50  1  0.80253000  0.67164000  0.11379000  1
  O  O51  1  0.30253000  0.67164000  0.22759000  1
  O  O52  1  0.80707100  0.69142000  0.34084900  1
  O  O53  1  0.32336000  0.66266300  0.45143200  1
  O  O54  1  0.69747000  0.67164000  1.00000000  1
  O  O55  1  0.19747000  0.67164000  0.11379000  1
  O  O56  1  0.69747000  0.67164000  0.22759000  1
  O  O57  1  0.19411200  0.69045600  0.33993000  1
  O  O58  1  0.68741300  0.66661500  0.45075500  1
  O  O59  1  1.00000000  0.17164000  0.04494000  1
  O  O60  1  0.50000000  0.17164000  0.15874000  1
  O  O61  1  0.99978400  0.15531300  0.27066400  1
  O  O62  1  0.49835900  0.16097600  0.39005500  1
  O  O63  1  0.50000000  0.17164000  0.06885000  1
  O  O64  1  1.00000000  0.17164000  0.18264000  1
  O  O65  1  0.50113800  0.16143800  0.30029500  1
  O  O66  1  0.99967500  0.16505800  0.41340900  1
  O  O67  1  1.00000000  0.50000000  0.04332000  1
  O  O68  1  0.50000000  0.50000000  0.15711000  1
  O  O69  1  0.99950800  0.50002000  0.27169600  1
  O  O70  1  0.49477600  0.49499000  0.38372300  1
  O  O71  1  0.50000000  0.50000000  0.07048000  1
  O  O72  1  1.00000000  0.50000000  0.18427000  1
  O  O73  1  0.50107100  0.49519600  0.29702700  1
  O  O74  1  0.00415300  0.50730800  0.42440700  1
  O  O75  1  0.30966000  0.00000000  1.00000000  1
  O  O76  1  0.80966000  1.00000000  0.11379000  1
  O  O77  1  0.30966000  0.00000000  0.22759000  1
  O  O78  1  0.80977700  0.99882000  0.34289300  1
  O  O79  1  0.31277400  0.97944400  0.45643100  1
  O  O80  1  0.69034000  1.00000000  1.00000000  1
  O  O81  1  0.19034000  0.00000000  0.11379000  1
  O  O82  1  0.69034000  1.00000000  0.22759000  1
  O  O83  1  0.19113600  0.99918400  0.34199600  1
  O  O84  1  0.69211300  0.97527000  0.45654900  1
