# generated using pymatgen
data_MgTiMnVZnCrFeCoCuNiSb20ClO54
_symmetry_space_group_name_H-M   'P 1'
_cell_length_a   6.73058100
_cell_length_b   9.53074500
_cell_length_c   29.84532300
_cell_angle_alpha   89.68435400
_cell_angle_beta   89.83869300
_cell_angle_gamma   89.94569000
_symmetry_Int_Tables_number   1
_chemical_formula_structural   MgTiMnVZnCrFeCoCuNiSb20ClO54
_chemical_formula_sum
'Mg1 Ti1 Mn1 V1 Zn1 Cr1 Fe1 Co1 Cu1 Ni1 Sb20 Cl1 O54'
_cell_volume   1914.46392946
_cell_formula_units_Z   1
loop_
 _symmetry_equiv_pos_site_id
 _symmetry_equiv_pos_as_xyz
  1  'x, y, z'
loop_
 _atom_site_type_symbol
 _atom_site_label
 _atom_site_symmetry_multiplicity
 _atom_site_fract_x
 _atom_site_fract_y
 _atom_site_fract_z
 _atom_site_occupancy
  Mg  Mg0  1  0.00866400  0.17480200  0.66069600  1
  Ti  Ti1  1  0.00000000  0.00000000  0.77241000  1
  Mn  Mn2  1  0.50172900  0.50542300  0.56334000  1
  V  V3  1  0.50000000  0.33232000  0.88621000  1
  Zn  Zn4  1  0.50000000  0.16768000  0.00000000  1
  Cr  Cr5  1  0.50044200  0.81495000  0.56370900  1
  Fe  Fe6  1  0.50000000  0.83232000  0.77241000  1
  Co  Co7  1  0.50349000  0.34913500  0.66376800  1
  Cu  Cu8  1  0.87520500  0.02872400  0.57250400  1
  Ni  Ni9  1  0.50380300  0.66593100  0.66515600  1
  Sb  Sb10  1  0.00000000  0.00000000  0.00000000  1
  Sb  Sb11  1  0.50000000  1.00000000  0.88621000  1
  Sb  Sb12  1  0.50087700  0.00045700  0.66631900  1
  Sb  Sb13  1  0.50000000  0.50000000  0.00000000  1
  Sb  Sb14  1  0.00000000  0.50000000  0.88621000  1
  Sb  Sb15  1  0.50000000  0.50000000  0.77241000  1
  Sb  Sb16  1  0.00269200  0.49646700  0.65841200  1
  Sb  Sb17  1  0.00000000  0.66768000  0.00000000  1
  Sb  Sb18  1  0.50000000  0.66768000  0.88621000  1
  Sb  Sb19  1  0.00000000  0.66768000  0.77241000  1
  Sb  Sb20  1  0.01034200  0.69112900  0.54913200  1
  Sb  Sb21  1  0.00000000  0.16768000  0.88621000  1
  Sb  Sb22  1  0.50000000  0.16768000  0.77241000  1
  Sb  Sb23  1  0.48642000  0.18917700  0.55713200  1
  Sb  Sb24  1  0.50000000  0.83232000  0.00000000  1
  Sb  Sb25  1  0.00000000  0.83232000  0.88621000  1
  Sb  Sb26  1  0.00385000  0.83291800  0.66155900  1
  Sb  Sb27  1  1.00000000  0.33232000  0.00000000  1
  Sb  Sb28  1  0.00000000  0.33232000  0.77241000  1
  Sb  Sb29  1  0.99709100  0.33333333  0.54905100  1
  Cl  Cl30  1  0.49138800  0.49199800  0.48670900  1
  O  O31  1  0.00000000  0.82836000  0.95506000  1
  O  O32  1  0.50000000  0.82836000  0.84126000  1
  O  O33  1  0.00019600  0.84474300  0.72934800  1
  O  O34  1  0.50173200  0.83607100  0.62158500  1
  O  O35  1  0.50000000  0.82836000  0.93115000  1
  O  O36  1  0.00000000  0.82836000  0.81736000  1
  O  O37  1  0.50446700  0.83652700  0.70660500  1
  O  O38  1  0.00077100  0.83622900  0.59558400  1
  O  O39  1  0.69747000  0.32836000  1.00000000  1
  O  O40  1  0.19747000  0.32836000  0.88621000  1
  O  O41  1  0.69747000  0.32836000  0.77241000  1
  O  O42  1  0.20682500  0.34617100  0.66357800  1
  O  O43  1  0.68457200  0.34647200  0.56331900  1
  O  O44  1  0.30253000  0.32836000  1.00000000  1
  O  O45  1  0.80253000  0.32836000  0.88621000  1
  O  O46  1  0.30253000  0.32836000  0.77241000  1
  O  O47  1  0.80318900  0.34292000  0.66278800  1
  O  O48  1  0.30938000  0.35782700  0.56494900  1
  O  O49  1  0.69747000  0.67164000  1.00000000  1
  O  O50  1  0.19747000  0.67164000  0.88621000  1
  O  O51  1  0.69747000  0.67164000  0.77241000  1
  O  O52  1  0.19351600  0.66681400  0.66353500  1
  O  O53  1  0.67674200  0.66019400  0.55765500  1
  O  O54  1  0.30253000  0.67164000  1.00000000  1
  O  O55  1  0.80253000  0.67164000  0.88621000  1
  O  O56  1  0.30253000  0.67164000  0.77241000  1
  O  O57  1  0.81328300  0.66742100  0.66361200  1
  O  O58  1  0.32384100  0.65675900  0.56275500  1
  O  O59  1  0.00000000  0.17164000  0.95506000  1
  O  O60  1  0.50000000  0.17164000  0.84126000  1
  O  O61  1  0.00021600  0.15531300  0.72933600  1
  O  O62  1  0.50056900  0.16925000  0.62400800  1
  O  O63  1  0.50000000  0.17164000  0.93115000  1
  O  O64  1  0.00000000  0.17164000  0.81736000  1
  O  O65  1  0.50172200  0.17637300  0.70533000  1
  O  O66  1  0.02709300  0.17761400  0.59138900  1
  O  O67  1  0.00000000  0.50000000  0.95668000  1
  O  O68  1  0.50000000  0.50000000  0.84289000  1
  O  O69  1  0.00049200  0.50002000  0.72830400  1
  O  O70  1  0.50979900  0.50496500  0.62545500  1
  O  O71  1  0.50000000  0.50000000  0.92952000  1
  O  O72  1  0.00000000  0.50000000  0.81573000  1
  O  O73  1  0.50371500  0.49908900  0.70567300  1
  O  O74  1  0.99268300  0.51179200  0.58952700  1
  O  O75  1  0.69034000  0.00000000  1.00000000  1
  O  O76  1  0.19034000  0.00000000  0.88621000  1
  O  O77  1  0.69034000  0.00000000  0.77241000  1
  O  O78  1  0.19923500  0.99407800  0.66163900  1
  O  O79  1  0.68966000  0.91918600  0.54671300  1
  O  O80  1  0.30966000  1.00000000  1.00000000  1
  O  O81  1  0.80966000  0.00000000  0.88621000  1
  O  O82  1  0.30966000  0.00000000  0.77241000  1
  O  O83  1  0.80662200  0.99565500  0.65843700  1
  O  O84  1  0.31416400  0.90668600  0.54434200  1
