# generated using pymatgen
data_MgTiMnVZnCrFeCoCuNiSb20ClO54
_symmetry_space_group_name_H-M   'P 1'
_cell_length_a   6.60769200
_cell_length_b   9.64154800
_cell_length_c   29.04719400
_cell_angle_alpha   89.89602400
_cell_angle_beta   89.99513200
_cell_angle_gamma   89.98766300
_symmetry_Int_Tables_number   1
_chemical_formula_structural   MgTiMnVZnCrFeCoCuNiSb20ClO54
_chemical_formula_sum
'Mg1 Ti1 Mn1 V1 Zn1 Cr1 Fe1 Co1 Cu1 Ni1 Sb20 Cl1 O54'
_cell_volume   1850.54656464
_cell_formula_units_Z   1
loop_
 _symmetry_equiv_pos_site_id
 _symmetry_equiv_pos_as_xyz
  1  'x, y, z'
loop_
 _atom_site_type_symbol
 _atom_site_label
 _atom_site_symmetry_multiplicity
 _atom_site_fract_x
 _atom_site_fract_y
 _atom_site_fract_z
 _atom_site_occupancy
  Mg  Mg0  1  0.00000000  0.33232000  0.00000000  1
  Ti  Ti1  1  0.00000000  0.00000000  0.22759000  1
  Mn  Mn2  1  0.50128000  0.49229700  0.44512100  1
  V  V3  1  0.50000000  0.50000000  0.22759000  1
  Zn  Zn4  1  0.00000000  0.50000000  0.11379000  1
  Cr  Cr5  1  0.00000000  0.66768000  0.00000000  1
  Fe  Fe6  1  0.00033900  0.81161600  0.33680000  1
  Co  Co7  1  0.50000000  0.16768000  0.22759000  1
  Cu  Cu8  1  0.00087700  0.17569300  0.33408300  1
  Ni  Ni9  1  0.50036500  0.66424900  0.33906700  1
  Sb  Sb10  1  0.00000000  0.00000000  0.00000000  1
  Sb  Sb11  1  0.50000000  0.00000000  0.11379000  1
  Sb  Sb12  1  0.50106600  0.99053700  0.34381900  1
  Sb  Sb13  1  0.00257700  0.99920900  0.41276600  1
  Sb  Sb14  1  0.50000000  0.50000000  0.00000000  1
  Sb  Sb15  1  0.00064100  0.50419200  0.34261600  1
  Sb  Sb16  1  0.50000000  0.66768000  0.11379000  1
  Sb  Sb17  1  0.00000000  0.66768000  0.22759000  1
  Sb  Sb18  1  0.99997100  0.65876500  0.46084900  1
  Sb  Sb19  1  0.50000000  0.16768000  0.00000000  1
  Sb  Sb20  1  0.00000000  0.16768000  0.11379000  1
  Sb  Sb21  1  0.50189300  0.17268900  0.45761300  1
  Sb  Sb22  1  0.50000000  0.83232000  0.00000000  1
  Sb  Sb23  1  0.00000000  0.83232000  0.11379000  1
  Sb  Sb24  1  0.50000000  0.83232000  0.22759000  1
  Sb  Sb25  1  0.50041900  0.81313000  0.45526600  1
  Sb  Sb26  1  0.50000000  0.33232000  0.11379000  1
  Sb  Sb27  1  0.00000000  0.33232000  0.22759000  1
  Sb  Sb28  1  0.50071700  0.33840900  0.33794300  1
  Sb  Sb29  1  0.00100100  0.32594000  0.45639500  1
  Cl  Cl30  1  0.50617800  0.47887700  0.52315000  1
  O  O31  1  0.00000000  0.82836000  0.04494000  1
  O  O32  1  0.50000000  0.82836000  0.15874000  1
  O  O33  1  0.99980400  0.84474300  0.27065200  1
  O  O34  1  0.49988100  0.82507600  0.38652000  1
  O  O35  1  0.50000000  0.82836000  0.06885000  1
  O  O36  1  0.00000000  0.82836000  0.18264000  1
  O  O37  1  0.50053900  0.83320300  0.29754600  1
  O  O38  1  0.00220400  0.79490900  0.40966400  1
  O  O39  1  0.30253000  0.32836000  0.00000000  1
  O  O40  1  0.80253000  0.32836000  0.11379000  1
  O  O41  1  0.30253000  0.32836000  0.22759000  1
  O  O42  1  0.80352700  0.34500200  0.33613300  1
  O  O43  1  0.31435500  0.34394300  0.44252900  1
  O  O44  1  0.69747000  0.32836000  0.00000000  1
  O  O45  1  0.19747000  0.32836000  0.11379000  1
  O  O46  1  0.69747000  0.32836000  0.22759000  1
  O  O47  1  0.19776300  0.34506200  0.33593400  1
  O  O48  1  0.68823000  0.34383200  0.44201800  1
  O  O49  1  0.30253000  0.67164000  0.00000000  1
  O  O50  1  0.80253000  0.67164000  0.11379000  1
  O  O51  1  0.30253000  0.67164000  0.22759000  1
  O  O52  1  0.81060200  0.66815600  0.33716400  1
  O  O53  1  0.31304600  0.64183400  0.44738200  1
  O  O54  1  0.69747000  0.67164000  0.00000000  1
  O  O55  1  0.19747000  0.67164000  0.11379000  1
  O  O56  1  0.69747000  0.67164000  0.22759000  1
  O  O57  1  0.19019900  0.66844900  0.33685700  1
  O  O58  1  0.68810600  0.64206500  0.44635200  1
  O  O59  1  0.00000000  0.17164000  0.04494000  1
  O  O60  1  0.50000000  0.17164000  0.15874000  1
  O  O61  1  0.99978400  0.15531300  0.27066400  1
  O  O62  1  0.50097300  0.16425300  0.38571000  1
  O  O63  1  0.50000000  0.17164000  0.06885000  1
  O  O64  1  0.00000000  0.17164000  0.18264000  1
  O  O65  1  0.50099500  0.15860500  0.29889800  1
  O  O66  1  0.00247300  0.20054800  0.40179700  1
  O  O67  1  0.00000000  0.50000000  0.04332000  1
  O  O68  1  0.50000000  0.50000000  0.15711000  1
  O  O69  1  0.99950800  0.50002000  0.27169600  1
  O  O70  1  0.49968300  0.50218100  0.38016400  1
  O  O71  1  0.50000000  0.50000000  0.07048000  1
  O  O72  1  0.00000000  0.50000000  0.18427000  1
  O  O73  1  0.50015400  0.50247000  0.28992600  1
  O  O74  1  0.00152600  0.49756300  0.41434600  1
  O  O75  1  0.30966000  1.00000000  0.00000000  1
  O  O76  1  0.80966000  0.00000000  0.11379000  1
  O  O77  1  0.30966000  0.00000000  0.22759000  1
  O  O78  1  0.81754200  0.97752300  0.35109300  1
  O  O79  1  0.24620300  0.00751300  0.45106000  1
  O  O80  1  0.69034000  1.00000000  0.00000000  1
  O  O81  1  0.19034000  0.00000000  0.11379000  1
  O  O82  1  0.69034000  0.00000000  0.22759000  1
  O  O83  1  0.18464000  0.97868500  0.35098400  1
  O  O84  1  0.75889800  0.00860400  0.45103700  1
