# generated using pymatgen
data_MgTiMnVZnCrFeCoCuNiSb20ClO54
_symmetry_space_group_name_H-M   'P 1'
_cell_length_a   6.64752700
_cell_length_b   9.59480800
_cell_length_c   29.49033100
_cell_angle_alpha   89.92575800
_cell_angle_beta   89.98169000
_cell_angle_gamma   89.97775800
_symmetry_Int_Tables_number   1
_chemical_formula_structural   MgTiMnVZnCrFeCoCuNiSb20ClO54
_chemical_formula_sum
'Mg1 Ti1 Mn1 V1 Zn1 Cr1 Fe1 Co1 Cu1 Ni1 Sb20 Cl1 O54'
_cell_volume   1880.94296235
_cell_formula_units_Z   1
loop_
 _symmetry_equiv_pos_site_id
 _symmetry_equiv_pos_as_xyz
  1  'x, y, z'
loop_
 _atom_site_type_symbol
 _atom_site_label
 _atom_site_symmetry_multiplicity
 _atom_site_fract_x
 _atom_site_fract_y
 _atom_site_fract_z
 _atom_site_occupancy
  Mg  Mg0  1  0.99920200  0.34879700  0.44608200  1
  Ti  Ti1  1  0.99919500  0.64406100  0.44158100  1
  Mn  Mn2  1  0.49948500  0.49757600  0.45282000  1
  V  V3  1  0.50000000  0.83232000  0.22759000  1
  Zn  Zn4  1  0.50000000  0.50000000  0.00000000  1
  Cr  Cr5  1  0.00000000  0.50000000  0.11379000  1
  Fe  Fe6  1  0.50080500  0.66137900  0.33825200  1
  Co  Co7  1  0.00000000  0.83232000  0.11379000  1
  Cu  Cu8  1  0.00022900  0.50804700  0.33987100  1
  Ni  Ni9  1  0.50000000  0.16768000  0.00000000  1
  Sb  Sb10  1  0.00000000  0.00000000  0.00000000  1
  Sb  Sb11  1  0.50000000  0.00000000  0.11379000  1
  Sb  Sb12  1  0.00000000  0.00000000  0.22759000  1
  Sb  Sb13  1  0.50056000  0.98419800  0.34284900  1
  Sb  Sb14  1  0.99774500  0.99863800  0.43851100  1
  Sb  Sb15  1  0.50000000  0.50000000  0.22759000  1
  Sb  Sb16  1  0.00000000  0.33232000  0.00000000  1
  Sb  Sb17  1  0.50000000  0.33232000  0.11379000  1
  Sb  Sb18  1  0.00000000  0.33232000  0.22759000  1
  Sb  Sb19  1  0.50051000  0.34072700  0.34516200  1
  Sb  Sb20  1  0.50000000  0.83232000  0.00000000  1
  Sb  Sb21  1  0.00059800  0.81546000  0.33866800  1
  Sb  Sb22  1  0.49931600  0.81377700  0.46099800  1
  Sb  Sb23  1  0.00000000  0.16768000  0.11379000  1
  Sb  Sb24  1  0.50000000  0.16768000  0.22759000  1
  Sb  Sb25  1  0.00058100  0.17846700  0.34159600  1
  Sb  Sb26  1  0.49870400  0.19032300  0.46108300  1
  Sb  Sb27  1  0.00000000  0.66768000  0.00000000  1
  Sb  Sb28  1  0.50000000  0.66768000  0.11379000  1
  Sb  Sb29  1  0.00000000  0.66768000  0.22759000  1
  Cl  Cl30  1  0.49143600  0.49867500  0.52783400  1
  O  O31  1  0.00000000  0.17164000  0.04494000  1
  O  O32  1  0.50000000  0.17164000  0.15874000  1
  O  O33  1  0.00019600  0.15525700  0.27065200  1
  O  O34  1  0.50122600  0.16984100  0.38991400  1
  O  O35  1  0.50000000  0.17164000  0.06885000  1
  O  O36  1  0.00000000  0.17164000  0.18264000  1
  O  O37  1  0.50008400  0.17644500  0.29664900  1
  O  O38  1  0.99844900  0.18643900  0.40882100  1
  O  O39  1  0.69747000  0.67164000  0.00000000  1
  O  O40  1  0.19747000  0.67164000  0.11379000  1
  O  O41  1  0.69747000  0.67164000  0.22759000  1
  O  O42  1  0.21045000  0.67245200  0.33805200  1
  O  O43  1  0.71367300  0.64278100  0.45766600  1
  O  O44  1  0.30253000  0.67164000  0.00000000  1
  O  O45  1  0.80253000  0.67164000  0.11379000  1
  O  O46  1  0.30253000  0.67164000  0.22759000  1
  O  O47  1  0.79075000  0.67248900  0.33779000  1
  O  O48  1  0.28567900  0.64292400  0.45669000  1
  O  O49  1  0.69747000  0.32836000  0.00000000  1
  O  O50  1  0.19747000  0.32836000  0.11379000  1
  O  O51  1  0.69747000  0.32836000  0.22759000  1
  O  O52  1  0.19808400  0.33791200  0.33846100  1
  O  O53  1  0.69553800  0.35658700  0.45408800  1
  O  O54  1  0.30253000  0.32836000  0.00000000  1
  O  O55  1  0.80253000  0.32836000  0.11379000  1
  O  O56  1  0.30253000  0.32836000  0.22759000  1
  O  O57  1  0.80262200  0.33778100  0.33814300  1
  O  O58  1  0.30363800  0.35779700  0.45252700  1
  O  O59  1  0.00000000  0.82836000  0.04494000  1
  O  O60  1  0.50000000  0.82836000  0.15874000  1
  O  O61  1  0.00021600  0.84468700  0.27066400  1
  O  O62  1  0.50091800  0.82906500  0.39235600  1
  O  O63  1  0.50000000  0.82836000  0.06885000  1
  O  O64  1  0.00000000  0.82836000  0.18264000  1
  O  O65  1  0.49982600  0.82651800  0.28775700  1
  O  O66  1  0.99764100  0.79890400  0.40658900  1
  O  O67  1  0.00000000  0.50000000  0.04332000  1
  O  O68  1  0.50000000  0.50000000  0.15711000  1
  O  O69  1  0.00049200  0.49998000  0.27169600  1
  O  O70  1  0.50237200  0.50525800  0.38699200  1
  O  O71  1  0.50000000  0.50000000  0.07048000  1
  O  O72  1  0.00000000  0.50000000  0.18427000  1
  O  O73  1  0.50026000  0.49434400  0.29764600  1
  O  O74  1  0.99735600  0.50434300  0.40481000  1
  O  O75  1  0.69034000  1.00000000  0.00000000  1
  O  O76  1  0.19034000  0.00000000  0.11379000  1
  O  O77  1  0.69034000  1.00000000  0.22759000  1
  O  O78  1  0.18060400  0.99228500  0.34702700  1
  O  O79  1  0.73682000  0.00385800  0.46884300  1
  O  O80  1  0.30966000  0.00000000  0.00000000  1
  O  O81  1  0.80966000  1.00000000  0.11379000  1
  O  O82  1  0.30966000  0.00000000  0.22759000  1
  O  O83  1  0.82045900  0.99226700  0.34661100  1
  O  O84  1  0.25652700  0.00214600  0.46992900  1
