# generated using pymatgen
data_MgTiMnVZnCrFeCoCuNiSb20ClO54
_symmetry_space_group_name_H-M   'P 1'
_cell_length_a   6.69933500
_cell_length_b   9.54404500
_cell_length_c   29.16596400
_cell_angle_alpha   90.02469200
_cell_angle_beta   89.93904400
_cell_angle_gamma   89.99763900
_symmetry_Int_Tables_number   1
_chemical_formula_structural   MgTiMnVZnCrFeCoCuNiSb20ClO54
_chemical_formula_sum
'Mg1 Ti1 Mn1 V1 Zn1 Cr1 Fe1 Co1 Cu1 Ni1 Sb20 Cl1 O54'
_cell_volume   1864.83418793
_cell_formula_units_Z   1
loop_
 _symmetry_equiv_pos_site_id
 _symmetry_equiv_pos_as_xyz
  1  'x, y, z'
loop_
 _atom_site_type_symbol
 _atom_site_label
 _atom_site_symmetry_multiplicity
 _atom_site_fract_x
 _atom_site_fract_y
 _atom_site_fract_z
 _atom_site_occupancy
  Mg  Mg0  1  0.50000000  0.66768000  0.11379000  1
  Ti  Ti1  1  0.00000000  0.66768000  0.22759000  1
  Mn  Mn2  1  0.49941200  0.49052000  0.45414600  1
  V  V3  1  0.00000000  0.83232000  0.11379000  1
  Zn  Zn4  1  0.99997200  0.67002500  0.43821200  1
  Cr  Cr5  1  1.00000000  0.33232000  0.22759000  1
  Fe  Fe6  1  0.00056900  0.83206200  0.34096300  1
  Co  Co7  1  0.00192600  0.99836600  0.44336100  1
  Cu  Cu8  1  0.50000000  0.16768000  0.22759000  1
  Ni  Ni9  1  0.49884100  0.16900100  0.45170600  1
  Sb  Sb10  1  0.00000000  0.00000000  0.00000000  1
  Sb  Sb11  1  0.50000000  0.00000000  0.11379000  1
  Sb  Sb12  1  1.00000000  1.00000000  0.22759000  1
  Sb  Sb13  1  0.50018400  0.00340100  0.34216000  1
  Sb  Sb14  1  0.50000000  0.50000000  0.00000000  1
  Sb  Sb15  1  0.00000000  0.50000000  0.11379000  1
  Sb  Sb16  1  0.50000000  0.50000000  0.22759000  1
  Sb  Sb17  1  0.00120600  0.50226100  0.33982500  1
  Sb  Sb18  1  0.00000000  0.66768000  0.00000000  1
  Sb  Sb19  1  0.50035500  0.66550800  0.34823900  1
  Sb  Sb20  1  0.50000000  0.16768000  0.00000000  1
  Sb  Sb21  1  1.00000000  0.16768000  0.11379000  1
  Sb  Sb22  1  0.00002900  0.15754400  0.33998600  1
  Sb  Sb23  1  0.50000000  0.83232000  0.00000000  1
  Sb  Sb24  1  0.50000000  0.83232000  0.22759000  1
  Sb  Sb25  1  0.50024000  0.81871600  0.46265400  1
  Sb  Sb26  1  0.00000000  0.33232000  0.00000000  1
  Sb  Sb27  1  0.50000000  0.33232000  0.11379000  1
  Sb  Sb28  1  0.50021800  0.32696500  0.34075200  1
  Sb  Sb29  1  0.99884000  0.32957800  0.45586000  1
  Cl  Cl30  1  0.50553100  0.51094800  0.52900800  1
  O  O31  1  0.00000000  0.82836000  0.04494000  1
  O  O32  1  0.50000000  0.82836000  0.15874000  1
  O  O33  1  0.99980400  0.84474300  0.27065200  1
  O  O34  1  0.49886400  0.84245300  0.38853700  1
  O  O35  1  0.50000000  0.82836000  0.06885000  1
  O  O36  1  0.00000000  0.82836000  0.18264000  1
  O  O37  1  0.50042300  0.82982100  0.29902800  1
  O  O38  1  0.00317000  0.84389500  0.40532200  1
  O  O39  1  0.30253000  0.32836000  0.00000000  1
  O  O40  1  0.80253000  0.32836000  0.11379000  1
  O  O41  1  0.30253000  0.32836000  0.22759000  1
  O  O42  1  0.80814600  0.33064600  0.33799200  1
  O  O43  1  0.31780700  0.34084400  0.45321300  1
  O  O44  1  0.69747000  0.32836000  0.00000000  1
  O  O45  1  0.19747000  0.32836000  0.11379000  1
  O  O46  1  0.69747000  0.32836000  0.22759000  1
  O  O47  1  0.19253500  0.32978400  0.33724400  1
  O  O48  1  0.68014000  0.34119700  0.45113400  1
  O  O49  1  0.30253000  0.67164000  0.00000000  1
  O  O50  1  0.80253000  0.67164000  0.11379000  1
  O  O51  1  0.30253000  0.67164000  0.22759000  1
  O  O52  1  0.80576000  0.66465600  0.34140900  1
  O  O53  1  0.30480700  0.65172800  0.44951200  1
  O  O54  1  0.69747000  0.67164000  0.00000000  1
  O  O55  1  0.19747000  0.67164000  0.11379000  1
  O  O56  1  0.69747000  0.67164000  0.22759000  1
  O  O57  1  0.19481300  0.66537200  0.34102700  1
  O  O58  1  0.69400100  0.65060000  0.44793200  1
  O  O59  1  1.00000000  0.17164000  0.04494000  1
  O  O60  1  0.50000000  0.17164000  0.15874000  1
  O  O61  1  0.99978400  0.15531300  0.27066400  1
  O  O62  1  0.49950600  0.16681700  0.38561700  1
  O  O63  1  0.50000000  0.17164000  0.06885000  1
  O  O64  1  1.00000000  0.17164000  0.18264000  1
  O  O65  1  0.50173700  0.16482900  0.29743400  1
  O  O66  1  0.00343600  0.17497500  0.40823000  1
  O  O67  1  1.00000000  0.50000000  0.04332000  1
  O  O68  1  0.50000000  0.50000000  0.15711000  1
  O  O69  1  0.99950800  0.50002000  0.27169600  1
  O  O70  1  0.49400500  0.48726100  0.38572100  1
  O  O71  1  0.50000000  0.50000000  0.07048000  1
  O  O72  1  1.00000000  0.50000000  0.18427000  1
  O  O73  1  0.50099400  0.50225400  0.29833600  1
  O  O74  1  0.00303400  0.48447600  0.40776100  1
  O  O75  1  0.30966000  1.00000000  0.00000000  1
  O  O76  1  0.80966000  0.00000000  0.11379000  1
  O  O77  1  0.30966000  1.00000000  0.22759000  1
  O  O78  1  0.80251100  0.99950000  0.33992500  1
  O  O79  1  0.27027300  0.01033000  0.45520800  1
  O  O80  1  0.69034000  0.00000000  0.00000000  1
  O  O81  1  0.19034000  1.00000000  0.11379000  1
  O  O82  1  0.69034000  0.00000000  0.22759000  1
  O  O83  1  0.19812800  0.99986200  0.33959000  1
  O  O84  1  0.73412600  0.01050500  0.45453400  1
