# generated using pymatgen
data_MgTiMnVZnCrFeCoCuNiSb20ClO54
_symmetry_space_group_name_H-M   'P 1'
_cell_length_a   6.66923600
_cell_length_b   9.50024900
_cell_length_c   28.84504700
_cell_angle_alpha   89.95381600
_cell_angle_beta   89.94207100
_cell_angle_gamma   89.97039300
_symmetry_Int_Tables_number   1
_chemical_formula_structural   MgTiMnVZnCrFeCoCuNiSb20ClO54
_chemical_formula_sum
'Mg1 Ti1 Mn1 V1 Zn1 Cr1 Fe1 Co1 Cu1 Ni1 Sb20 Cl1 O54'
_cell_volume   1827.60317596
_cell_formula_units_Z   1
loop_
 _symmetry_equiv_pos_site_id
 _symmetry_equiv_pos_as_xyz
  1  'x, y, z'
loop_
 _atom_site_type_symbol
 _atom_site_label
 _atom_site_symmetry_multiplicity
 _atom_site_fract_x
 _atom_site_fract_y
 _atom_site_fract_z
 _atom_site_occupancy
  Mg  Mg0  1  1.00000000  0.33232000  0.00000000  1
  Ti  Ti1  1  0.50030900  0.33457100  0.33937600  1
  Mn  Mn2  1  0.50202200  0.49651100  0.45317400  1
  V  V3  1  0.50000000  0.50000000  0.22759000  1
  Zn  Zn4  1  1.00000000  0.83232000  0.11379000  1
  Cr  Cr5  1  1.00000000  0.66768000  0.22759000  1
  Fe  Fe6  1  0.00258200  0.99533300  0.44430400  1
  Co  Co7  1  0.50000000  0.50000000  0.00000000  1
  Cu  Cu8  1  0.50000000  0.16768000  0.00000000  1
  Ni  Ni9  1  0.50000000  0.66768000  0.11379000  1
  Sb  Sb10  1  0.00000000  0.00000000  0.00000000  1
  Sb  Sb11  1  0.50000000  0.00000000  0.11379000  1
  Sb  Sb12  1  1.00000000  0.00000000  0.22759000  1
  Sb  Sb13  1  0.50161500  0.00176700  0.34494500  1
  Sb  Sb14  1  1.00000000  0.50000000  0.11379000  1
  Sb  Sb15  1  0.00472200  0.49789700  0.34330500  1
  Sb  Sb16  1  1.00000000  0.66768000  0.00000000  1
  Sb  Sb17  1  0.50242100  0.65907500  0.34732200  1
  Sb  Sb18  1  0.99899700  0.67537000  0.46221500  1
  Sb  Sb19  1  1.00000000  0.16768000  0.11379000  1
  Sb  Sb20  1  0.50000000  0.16768000  0.22759000  1
  Sb  Sb21  1  0.00087900  0.17988700  0.35775100  1
  Sb  Sb22  1  0.50127300  0.17161600  0.46153700  1
  Sb  Sb23  1  0.50000000  0.83232000  0.00000000  1
  Sb  Sb24  1  0.50000000  0.83232000  0.22759000  1
  Sb  Sb25  1  0.00261100  0.83658700  0.34012900  1
  Sb  Sb26  1  0.50171100  0.82121700  0.46313800  1
  Sb  Sb27  1  0.50000000  0.33232000  0.11379000  1
  Sb  Sb28  1  1.00000000  0.33232000  0.22759000  1
  Sb  Sb29  1  0.00043900  0.34957300  0.48305600  1
  Cl  Cl30  1  0.51877000  0.54490600  0.52925700  1
  O  O31  1  1.00000000  0.82836000  0.04494000  1
  O  O32  1  0.50000000  0.82836000  0.15874000  1
  O  O33  1  0.99980400  0.84474300  0.27065200  1
  O  O34  1  0.49712800  0.84585000  0.38961100  1
  O  O35  1  0.50000000  0.82836000  0.06885000  1
  O  O36  1  1.00000000  0.82836000  0.18264000  1
  O  O37  1  0.50551700  0.84480800  0.29772800  1
  O  O38  1  0.00635600  0.82254700  0.40992600  1
  O  O39  1  0.30253000  0.32836000  0.00000000  1
  O  O40  1  0.80253000  0.32836000  0.11379000  1
  O  O41  1  0.30253000  0.32836000  0.22759000  1
  O  O42  1  0.78898500  0.32440200  0.33309700  1
  O  O43  1  0.31407400  0.35151400  0.46238100  1
  O  O44  1  0.69747000  0.32836000  0.00000000  1
  O  O45  1  0.19747000  0.32836000  0.11379000  1
  O  O46  1  0.69747000  0.32836000  0.22759000  1
  O  O47  1  0.21372700  0.32078400  0.33128400  1
  O  O48  1  0.68948000  0.34883900  0.45919700  1
  O  O49  1  0.30253000  0.67164000  0.00000000  1
  O  O50  1  0.80253000  0.67164000  0.11379000  1
  O  O51  1  0.30253000  0.67164000  0.22759000  1
  O  O52  1  0.81084400  0.68254900  0.33440300  1
  O  O53  1  0.31325900  0.65151900  0.44425300  1
  O  O54  1  0.69747000  0.67164000  0.00000000  1
  O  O55  1  0.19747000  0.67164000  0.11379000  1
  O  O56  1  0.69747000  0.67164000  0.22759000  1
  O  O57  1  0.19639900  0.68452300  0.33327300  1
  O  O58  1  0.68762400  0.65216600  0.44112600  1
  O  O59  1  1.00000000  0.17164000  0.04494000  1
  O  O60  1  0.50000000  0.17164000  0.15874000  1
  O  O61  1  0.99978400  0.15531300  0.27066400  1
  O  O62  1  0.49899400  0.16772300  0.38788000  1
  O  O63  1  0.50000000  0.17164000  0.06885000  1
  O  O64  1  1.00000000  0.17164000  0.18264000  1
  O  O65  1  0.50594200  0.15568600  0.29776800  1
  O  O66  1  0.00653700  0.18621300  0.44186000  1
  O  O67  1  1.00000000  0.50000000  0.04332000  1
  O  O68  1  0.50000000  0.50000000  0.15711000  1
  O  O69  1  0.99950800  0.50002000  0.27169600  1
  O  O70  1  0.49388300  0.45563600  0.38830400  1
  O  O71  1  0.50000000  0.50000000  0.07048000  1
  O  O72  1  1.00000000  0.50000000  0.18427000  1
  O  O73  1  0.50016700  0.48071600  0.29170100  1
  O  O74  1  0.00182800  0.48977800  0.43137000  1
  O  O75  1  0.30966000  0.00000000  0.00000000  1
  O  O76  1  0.80966000  0.00000000  0.11379000  1
  O  O77  1  0.30966000  0.00000000  0.22759000  1
  O  O78  1  0.80359100  0.99451600  0.34059100  1
  O  O79  1  0.27019200  0.98640300  0.45268100  1
  O  O80  1  0.69034000  0.00000000  0.00000000  1
  O  O81  1  0.19034000  0.00000000  0.11379000  1
  O  O82  1  0.69034000  0.00000000  0.22759000  1
  O  O83  1  0.20013400  0.99517100  0.33937800  1
  O  O84  1  0.73394300  0.98962800  0.45087100  1
