# generated using pymatgen
data_MgTiMnVZnCrFeCoCuNiSb20ClO54
_symmetry_space_group_name_H-M   'P 1'
_cell_length_a   6.59321400
_cell_length_b   9.61189900
_cell_length_c   28.92357400
_cell_angle_alpha   89.66717300
_cell_angle_beta   89.99716500
_cell_angle_gamma   89.99469200
_symmetry_Int_Tables_number   1
_chemical_formula_structural   MgTiMnVZnCrFeCoCuNiSb20ClO54
_chemical_formula_sum
'Mg1 Ti1 Mn1 V1 Zn1 Cr1 Fe1 Co1 Cu1 Ni1 Sb20 Cl1 O54'
_cell_volume   1832.95160046
_cell_formula_units_Z   1
loop_
 _symmetry_equiv_pos_site_id
 _symmetry_equiv_pos_as_xyz
  1  'x, y, z'
loop_
 _atom_site_type_symbol
 _atom_site_label
 _atom_site_symmetry_multiplicity
 _atom_site_fract_x
 _atom_site_fract_y
 _atom_site_fract_z
 _atom_site_occupancy
  Mg  Mg0  1  0.50000000  0.50000000  1.00000000  1
  Ti  Ti1  1  0.00000000  0.00000000  0.00000000  1
  Mn  Mn2  1  0.49941700  0.50613500  0.54443700  1
  V  V3  1  0.00000000  0.16768000  0.88621000  1
  Zn  Zn4  1  0.00000000  0.33232000  1.00000000  1
  Cr  Cr5  1  0.50000000  0.33232000  0.88621000  1
  Fe  Fe6  1  0.50000000  0.83232000  0.77241000  1
  Co  Co7  1  1.00000000  0.66768000  1.00000000  1
  Cu  Cu8  1  0.49957900  0.82400300  0.54293200  1
  Ni  Ni9  1  0.99935500  0.16408200  0.65482400  1
  Sb  Sb10  1  0.50000000  1.00000000  0.88621000  1
  Sb  Sb11  1  1.00000000  0.00000000  0.77241000  1
  Sb  Sb12  1  0.49992100  0.99947800  0.65553300  1
  Sb  Sb13  1  0.99895500  0.00574000  0.53682600  1
  Sb  Sb14  1  1.00000000  0.50000000  0.88621000  1
  Sb  Sb15  1  0.50000000  0.50000000  0.77241000  1
  Sb  Sb16  1  0.99965200  0.48640400  0.65048800  1
  Sb  Sb17  1  0.50000000  0.66768000  0.88621000  1
  Sb  Sb18  1  1.00000000  0.66768000  0.77241000  1
  Sb  Sb19  1  0.49997800  0.67670100  0.65847900  1
  Sb  Sb20  1  0.99997900  0.67876400  0.53176600  1
  Sb  Sb21  1  0.50000000  0.16768000  0.00000000  1
  Sb  Sb22  1  0.50000000  0.16768000  0.77241000  1
  Sb  Sb23  1  0.49849800  0.16463600  0.53338400  1
  Sb  Sb24  1  0.50000000  0.83232000  1.00000000  1
  Sb  Sb25  1  1.00000000  0.83232000  0.88621000  1
  Sb  Sb26  1  0.99993100  0.84388800  0.65444800  1
  Sb  Sb27  1  0.00000000  0.33232000  0.77241000  1
  Sb  Sb28  1  0.49890900  0.33333333  0.64810900  1
  Sb  Sb29  1  0.00092400  0.33662500  0.53552500  1
  Cl  Cl30  1  0.49050400  0.47174700  0.46902400  1
  O  O31  1  1.00000000  0.82836000  0.95506000  1
  O  O32  1  0.50000000  0.82836000  0.84126000  1
  O  O33  1  0.00019600  0.84474300  0.72934800  1
  O  O34  1  0.50011300  0.83418000  0.61448800  1
  O  O35  1  0.50000000  0.82836000  0.93115000  1
  O  O36  1  1.00000000  0.82836000  0.81736000  1
  O  O37  1  0.49995400  0.84045000  0.70362100  1
  O  O38  1  0.99836700  0.83371400  0.58404000  1
  O  O39  1  0.69747000  0.32836000  1.00000000  1
  O  O40  1  0.19747000  0.32836000  0.88621000  1
  O  O41  1  0.69747000  0.32836000  0.77241000  1
  O  O42  1  0.20252700  0.31983800  0.65839500  1
  O  O43  1  0.68922800  0.35306500  0.55360800  1
  O  O44  1  0.30253000  0.32836000  1.00000000  1
  O  O45  1  0.80253000  0.32836000  0.88621000  1
  O  O46  1  0.30253000  0.32836000  0.77241000  1
  O  O47  1  0.79598100  0.32056900  0.65785700  1
  O  O48  1  0.31228300  0.35254400  0.55573200  1
  O  O49  1  0.69747000  0.67164000  1.00000000  1
  O  O50  1  0.19747000  0.67164000  0.88621000  1
  O  O51  1  0.69747000  0.67164000  0.77241000  1
  O  O52  1  0.19739900  0.68417100  0.66186700  1
  O  O53  1  0.68395400  0.65853300  0.54166800  1
  O  O54  1  0.30253000  0.67164000  1.00000000  1
  O  O55  1  0.80253000  0.67164000  0.88621000  1
  O  O56  1  0.30253000  0.67164000  0.77241000  1
  O  O57  1  0.80252600  0.68409700  0.66203200  1
  O  O58  1  0.31556100  0.65869000  0.54224000  1
  O  O59  1  0.00000000  0.17164000  0.95506000  1
  O  O60  1  0.50000000  0.17164000  0.84126000  1
  O  O61  1  0.00021600  0.15531300  0.72933600  1
  O  O62  1  0.50045700  0.15961400  0.60887200  1
  O  O63  1  0.50000000  0.17164000  0.93115000  1
  O  O64  1  1.00000000  0.17164000  0.81736000  1
  O  O65  1  0.49999700  0.16801900  0.69955800  1
  O  O66  1  0.99952700  0.17128700  0.58154500  1
  O  O67  1  1.00000000  0.50000000  0.95668000  1
  O  O68  1  0.50000000  0.50000000  0.84289000  1
  O  O69  1  0.00049200  0.50002000  0.72830400  1
  O  O70  1  0.50118300  0.51711600  0.61245300  1
  O  O71  1  0.50000000  0.50000000  0.92952000  1
  O  O72  1  1.00000000  0.50000000  0.81573000  1
  O  O73  1  0.49947100  0.49886100  0.69818100  1
  O  O74  1  0.99984900  0.51132200  0.57503500  1
  O  O75  1  0.69034000  0.00000000  1.00000000  1
  O  O76  1  0.19034000  1.00000000  0.88621000  1
  O  O77  1  0.69034000  0.00000000  0.77241000  1
  O  O78  1  0.19495800  0.00389500  0.65611100  1
  O  O79  1  0.68811400  0.98984000  0.54528300  1
  O  O80  1  0.30966000  1.00000000  0.00000000  1
  O  O81  1  0.80966000  0.00000000  0.88621000  1
  O  O82  1  0.30966000  1.00000000  0.77241000  1
  O  O83  1  0.80471500  0.00378300  0.65619100  1
  O  O84  1  0.30990700  0.98896800  0.54540600  1
