# generated using pymatgen
data_MgTiMnVZnCrFeCoCuNiSb20ClO54
_symmetry_space_group_name_H-M   'P 1'
_cell_length_a   6.62135300
_cell_length_b   9.51598700
_cell_length_c   28.83141000
_cell_angle_alpha   90.09345300
_cell_angle_beta   89.98109000
_cell_angle_gamma   89.98930200
_symmetry_Int_Tables_number   1
_chemical_formula_structural   MgTiMnVZnCrFeCoCuNiSb20ClO54
_chemical_formula_sum
'Mg1 Ti1 Mn1 V1 Zn1 Cr1 Fe1 Co1 Cu1 Ni1 Sb20 Cl1 O54'
_cell_volume   1816.62737754
_cell_formula_units_Z   1
loop_
 _symmetry_equiv_pos_site_id
 _symmetry_equiv_pos_as_xyz
  1  'x, y, z'
loop_
 _atom_site_type_symbol
 _atom_site_label
 _atom_site_symmetry_multiplicity
 _atom_site_fract_x
 _atom_site_fract_y
 _atom_site_fract_z
 _atom_site_occupancy
  Mg  Mg0  1  0.00011000  0.50027700  0.34420700  1
  Ti  Ti1  1  1.00000000  0.33232000  1.00000000  1
  Mn  Mn2  1  0.50037400  0.50078100  0.45278600  1
  V  V3  1  0.50000000  0.83232000  1.00000000  1
  Zn  Zn4  1  1.00000000  0.66768000  1.00000000  1
  Cr  Cr5  1  0.50000000  1.00000000  0.11379000  1
  Fe  Fe6  1  0.50000000  0.50000000  0.22759000  1
  Co  Co7  1  0.50000000  0.16768000  1.00000000  1
  Cu  Cu8  1  0.00000000  0.00000000  0.22759000  1
  Ni  Ni9  1  0.00000000  0.00000000  0.00000000  1
  Sb  Sb10  1  0.50079200  0.00055900  0.35294600  1
  Sb  Sb11  1  0.00017700  0.00057200  0.45923800  1
  Sb  Sb12  1  0.50000000  0.50000000  1.00000000  1
  Sb  Sb13  1  0.00000000  0.50000000  0.11379000  1
  Sb  Sb14  1  0.50000000  0.66768000  0.11379000  1
  Sb  Sb15  1  0.00000000  0.66768000  0.22759000  1
  Sb  Sb16  1  0.50055500  0.66393800  0.34178700  1
  Sb  Sb17  1  0.99971400  0.65761800  0.46263400  1
  Sb  Sb18  1  0.00000000  0.16768000  0.11379000  1
  Sb  Sb19  1  0.50000000  0.16768000  0.22759000  1
  Sb  Sb20  1  0.00092400  0.17444200  0.34042400  1
  Sb  Sb21  1  0.50055900  0.17671200  0.46489800  1
  Sb  Sb22  1  0.00000000  0.83232000  0.11379000  1
  Sb  Sb23  1  0.50000000  0.83232000  0.22759000  1
  Sb  Sb24  1  0.00077000  0.82606100  0.34046300  1
  Sb  Sb25  1  0.50011700  0.82522200  0.46494900  1
  Sb  Sb26  1  0.50000000  0.33232000  0.11379000  1
  Sb  Sb27  1  0.00000000  0.33232000  0.22759000  1
  Sb  Sb28  1  0.50028900  0.33717600  0.34187100  1
  Sb  Sb29  1  0.99999600  0.34327700  0.46265600  1
  Cl  Cl30  1  0.50447400  0.50082900  0.52987000  1
  O  O31  1  0.00000000  0.82836000  0.04494000  1
  O  O32  1  0.50000000  0.82836000  0.15874000  1
  O  O33  1  0.99980400  0.84474300  0.27065200  1
  O  O34  1  0.49973200  0.81575700  0.39008000  1
  O  O35  1  0.50000000  0.82836000  0.06885000  1
  O  O36  1  0.00000000  0.82836000  0.18264000  1
  O  O37  1  0.50035000  0.83158000  0.29912400  1
  O  O38  1  0.00047000  0.82497000  0.41244400  1
  O  O39  1  0.30253000  0.32836000  1.00000000  1
  O  O40  1  0.80253000  0.32836000  0.11379000  1
  O  O41  1  0.30253000  0.32836000  0.22759000  1
  O  O42  1  0.80073900  0.33469700  0.34035800  1
  O  O43  1  0.31295100  0.35127000  0.44989700  1
  O  O44  1  0.69747000  0.32836000  1.00000000  1
  O  O45  1  0.19747000  0.32836000  0.11379000  1
  O  O46  1  0.69747000  0.32836000  0.22759000  1
  O  O47  1  0.19988000  0.33523300  0.34007500  1
  O  O48  1  0.68722900  0.35117800  0.44946300  1
  O  O49  1  0.30253000  0.67164000  1.00000000  1
  O  O50  1  0.80253000  0.67164000  0.11379000  1
  O  O51  1  0.30253000  0.67164000  0.22759000  1
  O  O52  1  0.80103400  0.66586300  0.34022400  1
  O  O53  1  0.31297700  0.64986800  0.44998400  1
  O  O54  1  0.69747000  0.67164000  1.00000000  1
  O  O55  1  0.19747000  0.67164000  0.11379000  1
  O  O56  1  0.69747000  0.67164000  0.22759000  1
  O  O57  1  0.19999300  0.66558800  0.33992800  1
  O  O58  1  0.68695700  0.64997900  0.44958300  1
  O  O59  1  0.00000000  0.17164000  0.04494000  1
  O  O60  1  0.50000000  0.17164000  0.15874000  1
  O  O61  1  0.99978400  0.15531300  0.27066400  1
  O  O62  1  0.49895400  0.18530500  0.39013100  1
  O  O63  1  0.50000000  0.17164000  0.06885000  1
  O  O64  1  0.00000000  0.17164000  0.18264000  1
  O  O65  1  0.50007200  0.16886200  0.29917100  1
  O  O66  1  0.00067900  0.17541600  0.41245700  1
  O  O67  1  0.00000000  0.50000000  0.04332000  1
  O  O68  1  0.50000000  0.50000000  0.15711000  1
  O  O69  1  0.99950800  0.50002000  0.27169600  1
  O  O70  1  0.49982300  0.50074100  0.38543100  1
  O  O71  1  0.50000000  0.50000000  0.07048000  1
  O  O72  1  0.00000000  0.50000000  0.18427000  1
  O  O73  1  0.50208000  0.50026300  0.29677500  1
  O  O74  1  0.00021100  0.50034100  0.41466900  1
  O  O75  1  0.30966000  0.00000000  0.00000000  1
  O  O76  1  0.80966000  1.00000000  0.11379000  1
  O  O77  1  0.30966000  0.00000000  0.22759000  1
  O  O78  1  0.80824900  0.00017300  0.34276300  1
  O  O79  1  0.30649000  0.00009200  0.44078000  1
  O  O80  1  0.69034000  1.00000000  1.00000000  1
  O  O81  1  0.19034000  0.00000000  0.11379000  1
  O  O82  1  0.69034000  1.00000000  0.22759000  1
  O  O83  1  0.19365500  0.00007900  0.34251200  1
  O  O84  1  0.69383500  0.00027400  0.44061400  1
