# generated using pymatgen
data_MgTiMnVZnCrFeCoCuNiSb20ClO54
_symmetry_space_group_name_H-M   'P 1'
_cell_length_a   6.64926600
_cell_length_b   9.62735900
_cell_length_c   29.04054500
_cell_angle_alpha   89.64294100
_cell_angle_beta   89.93598000
_cell_angle_gamma   89.98538400
_symmetry_Int_Tables_number   1
_chemical_formula_structural   MgTiMnVZnCrFeCoCuNiSb20ClO54
_chemical_formula_sum
'Mg1 Ti1 Mn1 V1 Zn1 Cr1 Fe1 Co1 Cu1 Ni1 Sb20 Cl1 O54'
_cell_volume   1858.98942194
_cell_formula_units_Z   1
loop_
 _symmetry_equiv_pos_site_id
 _symmetry_equiv_pos_as_xyz
  1  'x, y, z'
loop_
 _atom_site_type_symbol
 _atom_site_label
 _atom_site_symmetry_multiplicity
 _atom_site_fract_x
 _atom_site_fract_y
 _atom_site_fract_z
 _atom_site_occupancy
  Mg  Mg0  1  0.00056800  0.67168500  0.54772900  1
  Ti  Ti1  1  0.00041300  0.17252000  0.65326100  1
  Mn  Mn2  1  0.50038300  0.51662300  0.54155700  1
  V  V3  1  0.50000000  0.50000000  0.00000000  1
  Zn  Zn4  1  0.50000000  0.66768000  0.88621000  1
  Cr  Cr5  1  0.50000000  0.50000000  0.77241000  1
  Fe  Fe6  1  0.49977800  0.80958800  0.54562600  1
  Co  Co7  1  0.99969300  0.99373900  0.55006400  1
  Cu  Cu8  1  1.00000000  0.33232000  0.00000000  1
  Ni  Ni9  1  1.00000000  0.16768000  0.88621000  1
  Sb  Sb10  1  0.00000000  0.00000000  0.00000000  1
  Sb  Sb11  1  0.50000000  0.00000000  0.88621000  1
  Sb  Sb12  1  1.00000000  0.00000000  0.77241000  1
  Sb  Sb13  1  0.49990200  0.00367300  0.65570900  1
  Sb  Sb14  1  1.00000000  0.50000000  0.88621000  1
  Sb  Sb15  1  0.01108700  0.48361000  0.65306300  1
  Sb  Sb16  1  0.50000000  0.33232000  0.88621000  1
  Sb  Sb17  1  1.00000000  0.33232000  0.77241000  1
  Sb  Sb18  1  0.50277000  0.33643000  0.62386100  1
  Sb  Sb19  1  0.00049200  0.33333333  0.54251100  1
  Sb  Sb20  1  0.50000000  0.83232000  0.00000000  1
  Sb  Sb21  1  1.00000000  0.83232000  0.88621000  1
  Sb  Sb22  1  0.50000000  0.83232000  0.77241000  1
  Sb  Sb23  1  0.99976700  0.83921300  0.65451900  1
  Sb  Sb24  1  0.50000000  0.16768000  0.00000000  1
  Sb  Sb25  1  0.50000000  0.16768000  0.77241000  1
  Sb  Sb26  1  0.49982300  0.12493200  0.52833500  1
  Sb  Sb27  1  0.00000000  0.66768000  0.00000000  1
  Sb  Sb28  1  1.00000000  0.66768000  0.77241000  1
  Sb  Sb29  1  0.50215900  0.67069600  0.66152400  1
  Cl  Cl30  1  0.50070800  0.45456300  0.46940700  1
  O  O31  1  1.00000000  0.17164000  0.95506000  1
  O  O32  1  0.50000000  0.17164000  0.84126000  1
  O  O33  1  0.99980400  0.15525700  0.72934800  1
  O  O34  1  0.50018900  0.12296100  0.60036100  1
  O  O35  1  0.50000000  0.17164000  0.93115000  1
  O  O36  1  1.00000000  0.17164000  0.81736000  1
  O  O37  1  0.50197200  0.15004900  0.70263100  1
  O  O38  1  0.99721200  0.16806600  0.58664100  1
  O  O39  1  0.30253000  0.67164000  0.00000000  1
  O  O40  1  0.80253000  0.67164000  0.88621000  1
  O  O41  1  0.30253000  0.67164000  0.77241000  1
  O  O42  1  0.80512400  0.68338300  0.66394700  1
  O  O43  1  0.30720800  0.66055400  0.53424400  1
  O  O44  1  0.69747000  0.67164000  0.00000000  1
  O  O45  1  0.19747000  0.67164000  0.88621000  1
  O  O46  1  0.69747000  0.67164000  0.77241000  1
  O  O47  1  0.20013600  0.68870300  0.66491600  1
  O  O48  1  0.69329700  0.66019100  0.53491000  1
  O  O49  1  0.30253000  0.32836000  0.00000000  1
  O  O50  1  0.80253000  0.32836000  0.88621000  1
  O  O51  1  0.30253000  0.32836000  0.77241000  1
  O  O52  1  0.81535800  0.31010100  0.65868700  1
  O  O53  1  0.31941500  0.35690000  0.55973000  1
  O  O54  1  0.69747000  0.32836000  0.00000000  1
  O  O55  1  0.19747000  0.32836000  0.88621000  1
  O  O56  1  0.69747000  0.32836000  0.77241000  1
  O  O57  1  0.19608900  0.30293700  0.65728500  1
  O  O58  1  0.68245400  0.35778300  0.55891400  1
  O  O59  1  1.00000000  0.82836000  0.95506000  1
  O  O60  1  0.50000000  0.82836000  0.84126000  1
  O  O61  1  0.99978400  0.84468700  0.72933600  1
  O  O62  1  0.50370400  0.83328100  0.61591700  1
  O  O63  1  0.50000000  0.82836000  0.93115000  1
  O  O64  1  1.00000000  0.82836000  0.81736000  1
  O  O65  1  0.50467500  0.84306900  0.70377400  1
  O  O66  1  0.00118900  0.83056600  0.58840400  1
  O  O67  1  1.00000000  0.50000000  0.95668000  1
  O  O68  1  0.50000000  0.50000000  0.84289000  1
  O  O69  1  0.99950800  0.49998000  0.72830400  1
  O  O70  1  0.49420400  0.55256700  0.60782700  1
  O  O71  1  0.50000000  0.50000000  0.92952000  1
  O  O72  1  1.00000000  0.50000000  0.81573000  1
  O  O73  1  0.49858000  0.51632200  0.70486800  1
  O  O74  1  0.99942800  0.50006600  0.58233300  1
  O  O75  1  0.30966000  0.00000000  0.00000000  1
  O  O76  1  0.80966000  0.00000000  0.88621000  1
  O  O77  1  0.30966000  0.00000000  0.77241000  1
  O  O78  1  0.80696400  0.99921500  0.65910000  1
  O  O79  1  0.29062700  0.97034600  0.53314500  1
  O  O80  1  0.69034000  0.00000000  0.00000000  1
  O  O81  1  0.19034000  0.00000000  0.88621000  1
  O  O82  1  0.69034000  0.00000000  0.77241000  1
  O  O83  1  0.19370100  0.99895900  0.65912300  1
  O  O84  1  0.70943700  0.97014500  0.53313200  1
