# generated using pymatgen
data_MgTiMnVZnCrFeCoCuNiSb20ClO54
_symmetry_space_group_name_H-M   'P 1'
_cell_length_a   6.62879800
_cell_length_b   9.52481100
_cell_length_c   28.87061100
_cell_angle_alpha   89.97999600
_cell_angle_beta   89.97782700
_cell_angle_gamma   89.98158200
_symmetry_Int_Tables_number   1
_chemical_formula_structural   MgTiMnVZnCrFeCoCuNiSb20ClO54
_chemical_formula_sum
'Mg1 Ti1 Mn1 V1 Zn1 Cr1 Fe1 Co1 Cu1 Ni1 Sb20 Cl1 O54'
_cell_volume   1822.83368451
_cell_formula_units_Z   1
loop_
 _symmetry_equiv_pos_site_id
 _symmetry_equiv_pos_as_xyz
  1  'x, y, z'
loop_
 _atom_site_type_symbol
 _atom_site_label
 _atom_site_symmetry_multiplicity
 _atom_site_fract_x
 _atom_site_fract_y
 _atom_site_fract_z
 _atom_site_occupancy
  Mg  Mg0  1  0.00000000  0.66768000  0.77241000  1
  Ti  Ti1  1  0.00000000  0.00000000  0.77241000  1
  Mn  Mn2  1  0.49796200  0.49183900  0.54553400  1
  V  V3  1  0.50032200  0.33811000  0.65909200  1
  Zn  Zn4  1  1.00000000  0.66768000  1.00000000  1
  Cr  Cr5  1  1.00000000  0.50000000  0.88621000  1
  Fe  Fe6  1  0.00000000  0.16768000  0.88621000  1
  Co  Co7  1  0.50000000  0.16768000  1.00000000  1
  Cu  Cu8  1  0.99803500  0.34843800  0.54046900  1
  Ni  Ni9  1  0.50000000  0.83232000  1.00000000  1
  Sb  Sb10  1  0.00000000  0.00000000  0.00000000  1
  Sb  Sb11  1  0.50000000  1.00000000  0.88621000  1
  Sb  Sb12  1  0.49941200  0.00334500  0.65531400  1
  Sb  Sb13  1  0.99879600  0.97519100  0.53476500  1
  Sb  Sb14  1  0.50000000  0.50000000  1.00000000  1
  Sb  Sb15  1  0.50000000  0.50000000  0.77241000  1
  Sb  Sb16  1  0.99897200  0.49858200  0.66177300  1
  Sb  Sb17  1  0.50000000  0.66768000  0.88621000  1
  Sb  Sb18  1  0.49831400  0.65743800  0.64092700  1
  Sb  Sb19  1  0.99887100  0.63536500  0.54524500  1
  Sb  Sb20  1  0.50000000  0.16768000  0.77241000  1
  Sb  Sb21  1  0.00001900  0.17308000  0.64280800  1
  Sb  Sb22  1  0.49951300  0.18033000  0.53775700  1
  Sb  Sb23  1  0.00000000  0.83232000  0.88621000  1
  Sb  Sb24  1  0.50000000  0.83232000  0.77241000  1
  Sb  Sb25  1  0.99852400  0.83174800  0.66064900  1
  Sb  Sb26  1  0.49078000  0.82279800  0.53435000  1
  Sb  Sb27  1  0.00000000  0.33232000  1.00000000  1
  Sb  Sb28  1  0.50000000  0.33232000  0.88621000  1
  Sb  Sb29  1  0.00000000  0.33232000  0.77241000  1
  Cl  Cl30  1  0.48550700  0.54998000  0.47172100  1
  O  O31  1  0.00000000  0.82836000  0.95506000  1
  O  O32  1  0.50000000  0.82836000  0.84126000  1
  O  O33  1  0.00019600  0.84474300  0.72934800  1
  O  O34  1  0.50246900  0.85044200  0.60956500  1
  O  O35  1  0.50000000  0.82836000  0.93115000  1
  O  O36  1  0.00000000  0.82836000  0.81736000  1
  O  O37  1  0.50049200  0.84357200  0.70112300  1
  O  O38  1  0.99735900  0.81921000  0.58980700  1
  O  O39  1  0.69747000  0.32836000  1.00000000  1
  O  O40  1  0.19747000  0.32836000  0.88621000  1
  O  O41  1  0.69747000  0.32836000  0.77241000  1
  O  O42  1  0.21211700  0.34521000  0.66264500  1
  O  O43  1  0.70064900  0.35880700  0.53755700  1
  O  O44  1  0.30253000  0.32836000  1.00000000  1
  O  O45  1  0.80253000  0.32836000  0.88621000  1
  O  O46  1  0.30253000  0.32836000  0.77241000  1
  O  O47  1  0.79076900  0.34200700  0.66379000  1
  O  O48  1  0.29574800  0.35573800  0.54021600  1
  O  O49  1  0.69747000  0.67164000  1.00000000  1
  O  O50  1  0.19747000  0.67164000  0.88621000  1
  O  O51  1  0.69747000  0.67164000  0.77241000  1
  O  O52  1  0.18859200  0.66897600  0.66373300  1
  O  O53  1  0.68115500  0.64783700  0.56107700  1
  O  O54  1  0.30253000  0.67164000  1.00000000  1
  O  O55  1  0.80253000  0.67164000  0.88621000  1
  O  O56  1  0.30253000  0.67164000  0.77241000  1
  O  O57  1  0.80956000  0.66914500  0.66423600  1
  O  O58  1  0.31362800  0.64365600  0.56482200  1
  O  O59  1  0.00000000  0.17164000  0.95506000  1
  O  O60  1  0.50000000  0.17164000  0.84126000  1
  O  O61  1  0.00021600  0.15531300  0.72933600  1
  O  O62  1  0.50356500  0.17466400  0.61382100  1
  O  O63  1  0.50000000  0.17164000  0.93115000  1
  O  O64  1  0.00000000  0.17164000  0.81736000  1
  O  O65  1  0.49931300  0.16859700  0.70075100  1
  O  O66  1  0.98566100  0.15432700  0.57039600  1
  O  O67  1  1.00000000  0.50000000  0.95668000  1
  O  O68  1  0.50000000  0.50000000  0.84289000  1
  O  O69  1  0.00049200  0.50002000  0.72830400  1
  O  O70  1  0.50528700  0.44940900  0.61136500  1
  O  O71  1  0.50000000  0.50000000  0.92952000  1
  O  O72  1  0.00000000  0.50000000  0.81573000  1
  O  O73  1  0.50162900  0.48680400  0.69924100  1
  O  O74  1  0.99012400  0.49095100  0.59553700  1
  O  O75  1  0.69034000  0.00000000  0.00000000  1
  O  O76  1  0.19034000  1.00000000  0.88621000  1
  O  O77  1  0.69034000  0.00000000  0.77241000  1
  O  O78  1  0.19651100  0.99110500  0.65599700  1
  O  O79  1  0.69262100  0.98771100  0.54665500  1
  O  O80  1  0.30966000  1.00000000  0.00000000  1
  O  O81  1  0.80966000  0.00000000  0.88621000  1
  O  O82  1  0.30966000  1.00000000  0.77241000  1
  O  O83  1  0.80340300  0.99317900  0.65605600  1
  O  O84  1  0.30066600  0.99651400  0.55084400  1
