# generated using pymatgen
data_MgTiMnVZnCrFeCoCuNiSb20ClO54
_symmetry_space_group_name_H-M   'P 1'
_cell_length_a   6.67021900
_cell_length_b   9.43475600
_cell_length_c   29.21234700
_cell_angle_alpha   90.14349700
_cell_angle_beta   89.99176300
_cell_angle_gamma   89.96572800
_symmetry_Int_Tables_number   1
_chemical_formula_structural   MgTiMnVZnCrFeCoCuNiSb20ClO54
_chemical_formula_sum
'Mg1 Ti1 Mn1 V1 Zn1 Cr1 Fe1 Co1 Cu1 Ni1 Sb20 Cl1 O54'
_cell_volume   1838.38205708
_cell_formula_units_Z   1
loop_
 _symmetry_equiv_pos_site_id
 _symmetry_equiv_pos_as_xyz
  1  'x, y, z'
loop_
 _atom_site_type_symbol
 _atom_site_label
 _atom_site_symmetry_multiplicity
 _atom_site_fract_x
 _atom_site_fract_y
 _atom_site_fract_z
 _atom_site_occupancy
  Mg  Mg0  1  0.00000000  0.33232000  0.77241000  1
  Ti  Ti1  1  0.50000000  1.00000000  0.88621000  1
  Mn  Mn2  1  0.49726600  0.50764400  0.54958000  1
  V  V3  1  1.00000000  1.00000000  0.77241000  1
  Zn  Zn4  1  0.50000000  0.16768000  1.00000000  1
  Cr  Cr5  1  0.50000000  0.83232000  0.77241000  1
  Fe  Fe6  1  0.50000000  0.83232000  1.00000000  1
  Co  Co7  1  0.49858400  0.00153400  0.65756900  1
  Cu  Cu8  1  0.00000000  0.16768000  0.88621000  1
  Ni  Ni9  1  0.00000400  0.16886900  0.66595300  1
  Sb  Sb10  1  0.00000000  0.00000000  0.00000000  1
  Sb  Sb11  1  0.99609600  0.01872300  0.58253300  1
  Sb  Sb12  1  0.50000000  0.50000000  1.00000000  1
  Sb  Sb13  1  0.00000000  0.50000000  0.88621000  1
  Sb  Sb14  1  0.50000000  0.50000000  0.77241000  1
  Sb  Sb15  1  0.99701100  0.48221800  0.65736400  1
  Sb  Sb16  1  0.00000000  0.66768000  1.00000000  1
  Sb  Sb17  1  0.50000000  0.66768000  0.88621000  1
  Sb  Sb18  1  0.00000000  0.66768000  0.77241000  1
  Sb  Sb19  1  0.49839600  0.68418300  0.65993700  1
  Sb  Sb20  1  0.99963400  0.68407800  0.53361700  1
  Sb  Sb21  1  0.50000000  0.16768000  0.77241000  1
  Sb  Sb22  1  0.49816300  0.18417300  0.54227500  1
  Sb  Sb23  1  0.00000000  0.83232000  0.88621000  1
  Sb  Sb24  1  0.99851300  0.83529300  0.66219100  1
  Sb  Sb25  1  0.49729600  0.83120500  0.54257800  1
  Sb  Sb26  1  0.00000000  0.33232000  1.00000000  1
  Sb  Sb27  1  0.50000000  0.33232000  0.88621000  1
  Sb  Sb28  1  0.49942900  0.32511400  0.65878400  1
  Sb  Sb29  1  0.99972900  0.33341200  0.53503800  1
  Cl  Cl30  1  0.48296500  0.50241100  0.47298900  1
  O  O31  1  1.00000000  0.82836000  0.95506000  1
  O  O32  1  0.50000000  0.82836000  0.84126000  1
  O  O33  1  0.00019600  0.84474300  0.72934800  1
  O  O34  1  0.50116200  0.83687800  0.61233800  1
  O  O35  1  0.50000000  0.82836000  0.93115000  1
  O  O36  1  0.00000000  0.82836000  0.81736000  1
  O  O37  1  0.49419000  0.84143500  0.70459200  1
  O  O38  1  0.99146700  0.80559200  0.59155100  1
  O  O39  1  0.69747000  0.32836000  1.00000000  1
  O  O40  1  0.19747000  0.32836000  0.88621000  1
  O  O41  1  0.69747000  0.32836000  0.77241000  1
  O  O42  1  0.20718300  0.32415300  0.66722300  1
  O  O43  1  0.68471600  0.35864100  0.55062500  1
  O  O44  1  0.30253000  0.32836000  1.00000000  1
  O  O45  1  0.80253000  0.32836000  0.88621000  1
  O  O46  1  0.30253000  0.32836000  0.77241000  1
  O  O47  1  0.79114500  0.32283300  0.66836100  1
  O  O48  1  0.31092500  0.35863200  0.55253200  1
  O  O49  1  0.69747000  0.67164000  1.00000000  1
  O  O50  1  0.19747000  0.67164000  0.88621000  1
  O  O51  1  0.69747000  0.67164000  0.77241000  1
  O  O52  1  0.19864400  0.68000900  0.66346800  1
  O  O53  1  0.68601200  0.65841600  0.54826000  1
  O  O54  1  0.30253000  0.67164000  1.00000000  1
  O  O55  1  0.80253000  0.67164000  0.88621000  1
  O  O56  1  0.30253000  0.67164000  0.77241000  1
  O  O57  1  0.79739800  0.68179300  0.66563700  1
  O  O58  1  0.30966300  0.65931100  0.55132400  1
  O  O59  1  0.00000000  0.17164000  0.95506000  1
  O  O60  1  0.50000000  0.17164000  0.84126000  1
  O  O61  1  0.00021600  0.15531300  0.72933600  1
  O  O62  1  0.50079400  0.17010800  0.61170500  1
  O  O63  1  0.50000000  0.17164000  0.93115000  1
  O  O64  1  0.00000000  0.17164000  0.81736000  1
  O  O65  1  0.49769800  0.15989500  0.70276000  1
  O  O66  1  0.99674500  0.22238500  0.59397000  1
  O  O67  1  0.00000000  0.50000000  0.95668000  1
  O  O68  1  0.50000000  0.50000000  0.84289000  1
  O  O69  1  0.00049200  0.50002000  0.72830400  1
  O  O70  1  0.50451900  0.50899100  0.61778300  1
  O  O71  1  0.50000000  0.50000000  0.92952000  1
  O  O72  1  0.00000000  0.50000000  0.81573000  1
  O  O73  1  0.49780100  0.50719900  0.70275200  1
  O  O74  1  0.99550900  0.51070400  0.56993400  1
  O  O75  1  0.69034000  0.00000000  1.00000000  1
  O  O76  1  0.19034000  1.00000000  0.88621000  1
  O  O77  1  0.69034000  1.00000000  0.77241000  1
  O  O78  1  0.18310500  0.99746300  0.64501800  1
  O  O79  1  0.75931900  0.01156500  0.54452100  1
  O  O80  1  0.30966000  0.00000000  1.00000000  1
  O  O81  1  0.80966000  1.00000000  0.88621000  1
  O  O82  1  0.30966000  1.00000000  0.77241000  1
  O  O83  1  0.81431100  0.99882700  0.64567900  1
  O  O84  1  0.23317700  0.00924000  0.54478000  1
