# generated using pymatgen
data_MgTiMnVZnCrFeCoCuNiSb20ClO54
_symmetry_space_group_name_H-M   'P 1'
_cell_length_a   6.69741200
_cell_length_b   9.47531200
_cell_length_c   29.00477400
_cell_angle_alpha   89.98516000
_cell_angle_beta   89.94285400
_cell_angle_gamma   89.99916800
_symmetry_Int_Tables_number   1
_chemical_formula_structural   MgTiMnVZnCrFeCoCuNiSb20ClO54
_chemical_formula_sum
'Mg1 Ti1 Mn1 V1 Zn1 Cr1 Fe1 Co1 Cu1 Ni1 Sb20 Cl1 O54'
_cell_volume   1840.64396141
_cell_formula_units_Z   1
loop_
 _symmetry_equiv_pos_site_id
 _symmetry_equiv_pos_as_xyz
  1  'x, y, z'
loop_
 _atom_site_type_symbol
 _atom_site_label
 _atom_site_symmetry_multiplicity
 _atom_site_fract_x
 _atom_site_fract_y
 _atom_site_fract_z
 _atom_site_occupancy
  Mg  Mg0  1  0.50000000  0.66768000  0.88621000  1
  Ti  Ti1  1  0.50000000  1.00000000  0.88621000  1
  Mn  Mn2  1  0.49920300  0.50862900  0.54579700  1
  V  V3  1  0.50000000  0.50000000  0.77241000  1
  Zn  Zn4  1  0.99908200  0.66340000  0.55391200  1
  Cr  Cr5  1  0.00000000  0.66768000  0.77241000  1
  Fe  Fe6  1  0.50000000  0.83232000  0.77241000  1
  Co  Co7  1  0.50000000  0.50000000  0.00000000  1
  Cu  Cu8  1  0.49918900  0.81588200  0.54357800  1
  Ni  Ni9  1  1.00000000  0.33232000  0.77241000  1
  Sb  Sb10  1  0.00000000  0.00000000  0.00000000  1
  Sb  Sb11  1  0.00000000  0.00000000  0.77241000  1
  Sb  Sb12  1  0.49985700  0.99255600  0.65638800  1
  Sb  Sb13  1  0.00009300  0.97411700  0.53428100  1
  Sb  Sb14  1  0.00000000  0.50000000  0.88621000  1
  Sb  Sb15  1  0.99866700  0.50008000  0.66285400  1
  Sb  Sb16  1  0.00000000  0.66768000  1.00000000  1
  Sb  Sb17  1  0.49941300  0.66992100  0.66287100  1
  Sb  Sb18  1  0.50000000  0.16768000  1.00000000  1
  Sb  Sb19  1  1.00000000  0.16768000  0.88621000  1
  Sb  Sb20  1  0.50000000  0.16768000  0.77241000  1
  Sb  Sb21  1  0.99830600  0.16923800  0.65664000  1
  Sb  Sb22  1  0.49805600  0.16032500  0.53528100  1
  Sb  Sb23  1  0.50000000  0.83232000  1.00000000  1
  Sb  Sb24  1  0.00000000  0.83232000  0.88621000  1
  Sb  Sb25  1  0.99935300  0.83509100  0.65924500  1
  Sb  Sb26  1  1.00000000  0.33232000  1.00000000  1
  Sb  Sb27  1  0.50000000  0.33232000  0.88621000  1
  Sb  Sb28  1  0.49912300  0.33790000  0.65076800  1
  Sb  Sb29  1  0.00020600  0.36079800  0.53888100  1
  Cl  Cl30  1  0.49473700  0.46394900  0.47172900  1
  O  O31  1  0.00000000  0.82836000  0.95506000  1
  O  O32  1  0.50000000  0.82836000  0.84126000  1
  O  O33  1  0.00019600  0.84474300  0.72934800  1
  O  O34  1  0.50318800  0.82375700  0.61662600  1
  O  O35  1  0.50000000  0.82836000  0.93115000  1
  O  O36  1  0.00000000  0.82836000  0.81736000  1
  O  O37  1  0.49671000  0.83638700  0.70481600  1
  O  O38  1  0.99370600  0.84027000  0.59173900  1
  O  O39  1  0.69747000  0.32836000  1.00000000  1
  O  O40  1  0.19747000  0.32836000  0.88621000  1
  O  O41  1  0.69747000  0.32836000  0.77241000  1
  O  O42  1  0.20472600  0.34543200  0.66460700  1
  O  O43  1  0.68757800  0.35190700  0.55713100  1
  O  O44  1  0.30253000  0.32836000  1.00000000  1
  O  O45  1  0.80253000  0.32836000  0.88621000  1
  O  O46  1  0.30253000  0.32836000  0.77241000  1
  O  O47  1  0.79269100  0.34507400  0.66528200  1
  O  O48  1  0.31189200  0.35397500  0.55902200  1
  O  O49  1  0.69747000  0.67164000  1.00000000  1
  O  O50  1  0.19747000  0.67164000  0.88621000  1
  O  O51  1  0.69747000  0.67164000  0.77241000  1
  O  O52  1  0.19137200  0.67051700  0.66093600  1
  O  O53  1  0.69384400  0.65378600  0.54248200  1
  O  O54  1  0.30253000  0.67164000  1.00000000  1
  O  O55  1  0.80253000  0.67164000  0.88621000  1
  O  O56  1  0.30253000  0.67164000  0.77241000  1
  O  O57  1  0.80767900  0.67089900  0.66228100  1
  O  O58  1  0.30456800  0.65409200  0.54335500  1
  O  O59  1  1.00000000  0.17164000  0.95506000  1
  O  O60  1  0.50000000  0.17164000  0.84126000  1
  O  O61  1  0.00021600  0.15531300  0.72933600  1
  O  O62  1  0.50374500  0.15501800  0.61164100  1
  O  O63  1  0.50000000  0.17164000  0.93115000  1
  O  O64  1  1.00000000  0.17164000  0.81736000  1
  O  O65  1  0.49792500  0.16274800  0.69931900  1
  O  O66  1  0.00110700  0.16452200  0.56487500  1
  O  O67  1  0.00000000  0.50000000  0.95668000  1
  O  O68  1  0.50000000  0.50000000  0.84289000  1
  O  O69  1  0.00049200  0.50002000  0.72830400  1
  O  O70  1  0.50460000  0.52063200  0.61535200  1
  O  O71  1  0.50000000  0.50000000  0.92952000  1
  O  O72  1  0.00000000  0.50000000  0.81573000  1
  O  O73  1  0.49778000  0.50075800  0.70388700  1
  O  O74  1  0.99569900  0.49584800  0.59571300  1
  O  O75  1  0.69034000  0.00000000  0.00000000  1
  O  O76  1  0.19034000  1.00000000  0.88621000  1
  O  O77  1  0.69034000  0.00000000  0.77241000  1
  O  O78  1  0.20290400  0.98682000  0.66229100  1
  O  O79  1  0.68820600  0.98367200  0.54477300  1
  O  O80  1  0.30966000  1.00000000  1.00000000  1
  O  O81  1  0.80966000  0.00000000  0.88621000  1
  O  O82  1  0.30966000  1.00000000  0.77241000  1
  O  O83  1  0.79541000  0.98650500  0.66377000  1
  O  O84  1  0.30986000  0.98185900  0.54651500  1
