# generated using pymatgen
data_MgTiMnVZnCrFeCoCuNiSb20ClO54
_symmetry_space_group_name_H-M   'P 1'
_cell_length_a   6.62287200
_cell_length_b   9.54010900
_cell_length_c   29.24277200
_cell_angle_alpha   89.82350000
_cell_angle_beta   89.97285300
_cell_angle_gamma   89.99686400
_symmetry_Int_Tables_number   1
_chemical_formula_structural   MgTiMnVZnCrFeCoCuNiSb20ClO54
_chemical_formula_sum
'Mg1 Ti1 Mn1 V1 Zn1 Cr1 Fe1 Co1 Cu1 Ni1 Sb20 Cl1 O54'
_cell_volume   1847.63476983
_cell_formula_units_Z   1
loop_
 _symmetry_equiv_pos_site_id
 _symmetry_equiv_pos_as_xyz
  1  'x, y, z'
loop_
 _atom_site_type_symbol
 _atom_site_label
 _atom_site_symmetry_multiplicity
 _atom_site_fract_x
 _atom_site_fract_y
 _atom_site_fract_z
 _atom_site_occupancy
  Mg  Mg0  1  1.00000000  0.83232000  0.11379000  1
  Ti  Ti1  1  1.00000000  0.66768000  0.00000000  1
  Mn  Mn2  1  0.49784300  0.49878400  0.44832300  1
  V  V3  1  0.00000000  0.33232000  0.22759000  1
  Zn  Zn4  1  0.49993400  0.17941600  0.44705000  1
  Cr  Cr5  1  1.00000000  0.66768000  0.22759000  1
  Fe  Fe6  1  0.50000000  0.83232000  0.22759000  1
  Co  Co7  1  0.50000000  0.16768000  0.22759000  1
  Cu  Cu8  1  0.50000000  0.50000000  0.22759000  1
  Ni  Ni9  1  0.99969600  0.83340000  0.33846500  1
  Sb  Sb10  1  0.00000000  0.00000000  0.00000000  1
  Sb  Sb11  1  0.50000000  1.00000000  0.11379000  1
  Sb  Sb12  1  0.00000000  0.00000000  0.22759000  1
  Sb  Sb13  1  0.49970100  0.99952800  0.34000700  1
  Sb  Sb14  1  0.99977700  0.99055700  0.45616100  1
  Sb  Sb15  1  0.50000000  0.50000000  0.00000000  1
  Sb  Sb16  1  1.00000000  0.50000000  0.11379000  1
  Sb  Sb17  1  0.00012800  0.50693400  0.33782400  1
  Sb  Sb18  1  0.00000000  0.33232000  0.00000000  1
  Sb  Sb19  1  0.50000000  0.33232000  0.11379000  1
  Sb  Sb20  1  0.50010900  0.33150500  0.33481700  1
  Sb  Sb21  1  0.99925800  0.32864500  0.45727100  1
  Sb  Sb22  1  0.50000000  0.83232000  0.00000000  1
  Sb  Sb23  1  0.49842300  0.83617900  0.45912800  1
  Sb  Sb24  1  0.50000000  0.16768000  0.00000000  1
  Sb  Sb25  1  0.00000000  0.16768000  0.11379000  1
  Sb  Sb26  1  0.99944500  0.15694000  0.33945200  1
  Sb  Sb27  1  0.50000000  0.66768000  0.11379000  1
  Sb  Sb28  1  0.50011700  0.66566800  0.34153700  1
  Sb  Sb29  1  0.99819500  0.65722500  0.45243700  1
  Cl  Cl30  1  0.49347200  0.52674400  0.52348500  1
  O  O31  1  0.00000000  0.17164000  0.04494000  1
  O  O32  1  0.50000000  0.17164000  0.15874000  1
  O  O33  1  0.00019600  0.15525700  0.27065200  1
  O  O34  1  0.50191600  0.17266000  0.37903500  1
  O  O35  1  0.50000000  0.17164000  0.06885000  1
  O  O36  1  0.00000000  0.17164000  0.18264000  1
  O  O37  1  0.49995600  0.16251800  0.29382800  1
  O  O38  1  0.99715900  0.16624000  0.40925900  1
  O  O39  1  0.69747000  0.67164000  0.00000000  1
  O  O40  1  0.19747000  0.67164000  0.11379000  1
  O  O41  1  0.69747000  0.67164000  0.22759000  1
  O  O42  1  0.19503300  0.66666667  0.34065700  1
  O  O43  1  0.68579900  0.64821200  0.43988300  1
  O  O44  1  0.30253000  0.67164000  0.00000000  1
  O  O45  1  0.80253000  0.67164000  0.11379000  1
  O  O46  1  0.30253000  0.67164000  0.22759000  1
  O  O47  1  0.80498500  0.66659300  0.34056900  1
  O  O48  1  0.30885900  0.64810100  0.43951400  1
  O  O49  1  0.69747000  0.32836000  0.00000000  1
  O  O50  1  0.19747000  0.32836000  0.11379000  1
  O  O51  1  0.69747000  0.32836000  0.22759000  1
  O  O52  1  0.18921600  0.32921400  0.33835400  1
  O  O53  1  0.68796400  0.35110100  0.45013800  1
  O  O54  1  0.30253000  0.32836000  0.00000000  1
  O  O55  1  0.80253000  0.32836000  0.11379000  1
  O  O56  1  0.30253000  0.32836000  0.22759000  1
  O  O57  1  0.81086000  0.32983700  0.33797400  1
  O  O58  1  0.30995500  0.34965200  0.44924000  1
  O  O59  1  1.00000000  0.82836000  0.04494000  1
  O  O60  1  0.50000000  0.82836000  0.15874000  1
  O  O61  1  0.00021600  0.84468700  0.27066400  1
  O  O62  1  0.50019600  0.83471000  0.38490800  1
  O  O63  1  0.50000000  0.82836000  0.06885000  1
  O  O64  1  1.00000000  0.82836000  0.18264000  1
  O  O65  1  0.50002300  0.83288600  0.29823200  1
  O  O66  1  0.99649900  0.82730800  0.41057500  1
  O  O67  1  1.00000000  0.50000000  0.04332000  1
  O  O68  1  0.50000000  0.50000000  0.15711000  1
  O  O69  1  0.00049200  0.49998000  0.27169600  1
  O  O70  1  0.50019700  0.48851000  0.38113000  1
  O  O71  1  0.50000000  0.50000000  0.07048000  1
  O  O72  1  1.00000000  0.50000000  0.18427000  1
  O  O73  1  0.49995200  0.50243900  0.29562400  1
  O  O74  1  0.99794000  0.49002200  0.40672200  1
  O  O75  1  0.69034000  0.00000000  1.00000000  1
  O  O76  1  0.19034000  1.00000000  0.11379000  1
  O  O77  1  0.69034000  0.00000000  0.22759000  1
  O  O78  1  0.19539700  0.99915700  0.34142700  1
  O  O79  1  0.69116100  0.00819200  0.44720000  1
  O  O80  1  0.30966000  1.00000000  0.00000000  1
  O  O81  1  0.80966000  0.00000000  0.11379000  1
  O  O82  1  0.30966000  1.00000000  0.22759000  1
  O  O83  1  0.80407000  0.99896900  0.34141200  1
  O  O84  1  0.30711800  0.00801800  0.44549300  1
