# generated using pymatgen
data_MgTiMnVZnCrFeCoCuNiSb20ClO54
_symmetry_space_group_name_H-M   'P 1'
_cell_length_a   6.61410700
_cell_length_b   9.86385000
_cell_length_c   28.51861600
_cell_angle_alpha   89.79479600
_cell_angle_beta   90.63035200
_cell_angle_gamma   89.85860500
_symmetry_Int_Tables_number   1
_chemical_formula_structural   MgTiMnVZnCrFeCoCuNiSb20ClO54
_chemical_formula_sum
'Mg1 Ti1 Mn1 V1 Zn1 Cr1 Fe1 Co1 Cu1 Ni1 Sb20 Cl1 O54'
_cell_volume   1860.44008035
_cell_formula_units_Z   1
loop_
 _symmetry_equiv_pos_site_id
 _symmetry_equiv_pos_as_xyz
  1  'x, y, z'
loop_
 _atom_site_type_symbol
 _atom_site_label
 _atom_site_symmetry_multiplicity
 _atom_site_fract_x
 _atom_site_fract_y
 _atom_site_fract_z
 _atom_site_occupancy
  Mg  Mg0  1  0.50000000  0.00000000  0.11379000  1
  Ti  Ti1  1  0.01706200  0.17770900  0.34051200  1
  Mn  Mn2  1  0.47491900  0.50615300  0.45468200  1
  V  V3  1  0.48285400  0.00266900  0.34827000  1
  Zn  Zn4  1  0.00000000  0.33232000  0.00000000  1
  Cr  Cr5  1  0.99677600  0.34784300  0.44750600  1
  Fe  Fe6  1  0.01310300  0.83522000  0.33909400  1
  Co  Co7  1  0.00000000  0.00000000  0.00000000  1
  Cu  Cu8  1  0.00000000  0.66768000  0.00000000  1
  Ni  Ni9  1  0.50000000  0.33232000  0.11379000  1
  Sb  Sb10  1  0.00000000  0.00000000  0.22759000  1
  Sb  Sb11  1  0.95232600  0.00272500  0.42690000  1
  Sb  Sb12  1  0.50000000  0.50000000  0.00000000  1
  Sb  Sb13  1  0.00000000  0.50000000  0.11379000  1
  Sb  Sb14  1  0.50000000  0.50000000  0.22759000  1
  Sb  Sb15  1  0.05261500  0.52512500  0.34714600  1
  Sb  Sb16  1  1.00000000  0.33232000  0.22759000  1
  Sb  Sb17  1  0.52347000  0.32406200  0.34298700  1
  Sb  Sb18  1  0.50000000  0.83232000  0.00000000  1
  Sb  Sb19  1  0.00000000  0.83232000  0.11379000  1
  Sb  Sb20  1  0.50000000  0.83232000  0.22759000  1
  Sb  Sb21  1  0.44209100  0.82879000  0.46774600  1
  Sb  Sb22  1  0.50000000  0.16768000  0.00000000  1
  Sb  Sb23  1  0.00000000  0.16768000  0.11379000  1
  Sb  Sb24  1  0.50000000  0.16768000  0.22759000  1
  Sb  Sb25  1  0.50119100  0.18994100  0.46320300  1
  Sb  Sb26  1  0.50000000  0.66768000  0.11379000  1
  Sb  Sb27  1  0.00000000  0.66768000  0.22759000  1
  Sb  Sb28  1  0.54132100  0.68425600  0.36053600  1
  Sb  Sb29  1  0.95851500  0.68010200  0.46492900  1
  Cl  Cl30  1  0.50262400  0.55061500  0.53128500  1
  O  O31  1  1.00000000  0.17164000  0.04494000  1
  O  O32  1  0.50000000  0.17164000  0.15874000  1
  O  O33  1  0.00019600  0.15525700  0.27065200  1
  O  O34  1  0.51810600  0.17072600  0.39041900  1
  O  O35  1  0.50000000  0.17164000  0.06885000  1
  O  O36  1  0.00000000  0.17164000  0.18264000  1
  O  O37  1  0.53176900  0.15759500  0.29965300  1
  O  O38  1  0.04616000  0.18743800  0.41125800  1
  O  O39  1  0.69747000  0.67164000  0.00000000  1
  O  O40  1  0.19747000  0.67164000  0.11379000  1
  O  O41  1  0.69747000  0.67164000  0.22759000  1
  O  O42  1  0.22174100  0.69965900  0.33760200  1
  O  O43  1  0.63940300  0.66457300  0.44058700  1
  O  O44  1  0.30253000  0.67164000  0.00000000  1
  O  O45  1  0.80253000  0.67164000  0.11379000  1
  O  O46  1  0.30253000  0.67164000  0.22759000  1
  O  O47  1  0.83438000  0.66735100  0.33459600  1
  O  O48  1  0.26459300  0.67360700  0.44672200  1
  O  O49  1  0.69747000  0.32836000  0.00000000  1
  O  O50  1  0.19747000  0.32836000  0.11379000  1
  O  O51  1  0.69747000  0.32836000  0.22759000  1
  O  O52  1  0.22488500  0.29672000  0.33550800  1
  O  O53  1  0.71618500  0.33223800  0.46204300  1
  O  O54  1  0.30253000  0.32836000  0.00000000  1
  O  O55  1  0.80253000  0.32836000  0.11379000  1
  O  O56  1  0.30253000  0.32836000  0.22759000  1
  O  O57  1  0.82546700  0.31885900  0.34097500  1
  O  O58  1  0.28578100  0.36319500  0.45963500  1
  O  O59  1  0.00000000  0.82836000  0.04494000  1
  O  O60  1  0.50000000  0.82836000  0.15874000  1
  O  O61  1  0.00021600  0.84468700  0.27066400  1
  O  O62  1  0.49405000  0.88610400  0.39787200  1
  O  O63  1  0.50000000  0.82836000  0.06885000  1
  O  O64  1  1.00000000  0.82836000  0.18264000  1
  O  O65  1  0.54792500  0.87145700  0.31064400  1
  O  O66  1  0.94097500  0.80990700  0.40932000  1
  O  O67  1  0.00000000  0.50000000  0.04332000  1
  O  O68  1  0.50000000  0.50000000  0.15711000  1
  O  O69  1  0.00049200  0.49998000  0.27169600  1
  O  O70  1  0.49257300  0.47543200  0.38797200  1
  O  O71  1  0.50000000  0.50000000  0.07048000  1
  O  O72  1  1.00000000  0.50000000  0.18427000  1
  O  O73  1  0.50719400  0.48463100  0.29898500  1
  O  O74  1  0.95943900  0.51995400  0.42281800  1
  O  O75  1  0.69034000  0.00000000  1.00000000  1
  O  O76  1  0.19034000  0.00000000  0.11379000  1
  O  O77  1  0.69034000  0.00000000  0.22759000  1
  O  O78  1  0.21913700  0.00979400  0.34306300  1
  O  O79  1  0.72922900  0.03007200  0.46766000  1
  O  O80  1  0.30966000  0.00000000  0.00000000  1
  O  O81  1  0.80966000  0.00000000  0.11379000  1
  O  O82  1  0.30966000  0.00000000  0.22759000  1
  O  O83  1  0.84348800  0.01679100  0.35901700  1
  O  O84  1  0.19217200  0.96412300  0.46508600  1
