# generated using pymatgen
data_MgTiMnVZnCrFeCoCuNiSb20ClO54
_symmetry_space_group_name_H-M   'P 1'
_cell_length_a   6.62150100
_cell_length_b   9.53140000
_cell_length_c   28.67699000
_cell_angle_alpha   89.99918700
_cell_angle_beta   89.89802300
_cell_angle_gamma   89.98629100
_symmetry_Int_Tables_number   1
_chemical_formula_structural   MgTiMnVZnCrFeCoCuNiSb20ClO54
_chemical_formula_sum
'Mg1 Ti1 Mn1 V1 Zn1 Cr1 Fe1 Co1 Cu1 Ni1 Sb20 Cl1 O54'
_cell_volume   1809.86428215
_cell_formula_units_Z   1
loop_
 _symmetry_equiv_pos_site_id
 _symmetry_equiv_pos_as_xyz
  1  'x, y, z'
loop_
 _atom_site_type_symbol
 _atom_site_label
 _atom_site_symmetry_multiplicity
 _atom_site_fract_x
 _atom_site_fract_y
 _atom_site_fract_z
 _atom_site_occupancy
  Mg  Mg0  1  1.00000000  0.66768000  1.00000000  1
  Ti  Ti1  1  0.00000000  0.83232000  0.11379000  1
  Mn  Mn2  1  0.50288200  0.52849500  0.46911300  1
  V  V3  1  0.00000000  0.00000000  0.22759000  1
  Zn  Zn4  1  0.00561600  0.35334700  0.44904000  1
  Cr  Cr5  1  0.50000000  0.50000000  0.22759000  1
  Fe  Fe6  1  0.50000000  0.16768000  0.00000000  1
  Co  Co7  1  0.50000000  1.00000000  0.11379000  1
  Cu  Cu8  1  0.00066700  0.99882700  0.44541400  1
  Ni  Ni9  1  0.00000000  0.50000000  0.11379000  1
  Sb  Sb10  1  0.00000000  0.00000000  0.00000000  1
  Sb  Sb11  1  0.49917800  0.98673300  0.38655200  1
  Sb  Sb12  1  0.50000000  0.50000000  0.00000000  1
  Sb  Sb13  1  0.99339500  0.50628600  0.35349300  1
  Sb  Sb14  1  0.50000000  0.66768000  0.11379000  1
  Sb  Sb15  1  0.00000000  0.66768000  0.22759000  1
  Sb  Sb16  1  0.49721600  0.66372800  0.33796800  1
  Sb  Sb17  1  0.00186300  0.71124300  0.46772200  1
  Sb  Sb18  1  0.00000000  0.16768000  0.11379000  1
  Sb  Sb19  1  0.50000000  0.16768000  0.22759000  1
  Sb  Sb20  1  0.99903400  0.16054700  0.34415300  1
  Sb  Sb21  1  0.50517300  0.22469900  0.47262000  1
  Sb  Sb22  1  0.50000000  0.83232000  1.00000000  1
  Sb  Sb23  1  0.50000000  0.83232000  0.22759000  1
  Sb  Sb24  1  0.99941400  0.83912200  0.34037100  1
  Sb  Sb25  1  0.50240100  0.84941300  0.48839300  1
  Sb  Sb26  1  0.00000000  0.33232000  0.00000000  1
  Sb  Sb27  1  0.50000000  0.33232000  0.11379000  1
  Sb  Sb28  1  0.00000000  0.33232000  0.22759000  1
  Sb  Sb29  1  0.49804800  0.32543600  0.34090400  1
  Cl  Cl30  1  0.51112500  0.51688500  0.54799400  1
  O  O31  1  0.00000000  0.82836000  0.04494000  1
  O  O32  1  0.50000000  0.82836000  0.15874000  1
  O  O33  1  0.99980400  0.84474300  0.27065200  1
  O  O34  1  0.49525100  0.77712800  0.39258100  1
  O  O35  1  0.50000000  0.82836000  0.06885000  1
  O  O36  1  0.00000000  0.82836000  0.18264000  1
  O  O37  1  0.49571900  0.82801800  0.29591200  1
  O  O38  1  0.99923100  0.81827200  0.40710900  1
  O  O39  1  0.30253000  0.32836000  0.00000000  1
  O  O40  1  0.80253000  0.32836000  0.11379000  1
  O  O41  1  0.30253000  0.32836000  0.22759000  1
  O  O42  1  0.79650300  0.31509000  0.33516000  1
  O  O43  1  0.30067900  0.37927100  0.46684400  1
  O  O44  1  0.69747000  0.32836000  0.00000000  1
  O  O45  1  0.19747000  0.32836000  0.11379000  1
  O  O46  1  0.69747000  0.32836000  0.22759000  1
  O  O47  1  0.19849400  0.31874100  0.33631700  1
  O  O48  1  0.70690000  0.37967000  0.46493000  1
  O  O49  1  0.30253000  0.67164000  1.00000000  1
  O  O50  1  0.80253000  0.67164000  0.11379000  1
  O  O51  1  0.30253000  0.67164000  0.22759000  1
  O  O52  1  0.80227300  0.67676800  0.33262600  1
  O  O53  1  0.31907900  0.67816000  0.46968100  1
  O  O54  1  0.69747000  0.67164000  1.00000000  1
  O  O55  1  0.19747000  0.67164000  0.11379000  1
  O  O56  1  0.69747000  0.67164000  0.22759000  1
  O  O57  1  0.19191900  0.67354400  0.33316000  1
  O  O58  1  0.68399000  0.67927100  0.46733100  1
  O  O59  1  0.00000000  0.17164000  0.04494000  1
  O  O60  1  0.50000000  0.17164000  0.15874000  1
  O  O61  1  0.99978400  0.15531300  0.27066400  1
  O  O62  1  0.49812100  0.21232800  0.39973300  1
  O  O63  1  0.50000000  0.17164000  0.06885000  1
  O  O64  1  0.00000000  0.17164000  0.18264000  1
  O  O65  1  0.49546800  0.16631600  0.29660600  1
  O  O66  1  0.99964600  0.18274000  0.41194800  1
  O  O67  1  0.00000000  0.50000000  0.04332000  1
  O  O68  1  0.50000000  0.50000000  0.15711000  1
  O  O69  1  0.99950800  0.50002000  0.27169600  1
  O  O70  1  0.50127900  0.49749300  0.38147300  1
  O  O71  1  0.50000000  0.50000000  0.07048000  1
  O  O72  1  0.00000000  0.50000000  0.18427000  1
  O  O73  1  0.49967100  0.49507300  0.29400200  1
  O  O74  1  0.00586700  0.54497000  0.42627700  1
  O  O75  1  0.30966000  0.00000000  0.00000000  1
  O  O76  1  0.80966000  1.00000000  0.11379000  1
  O  O77  1  0.30966000  0.00000000  0.22759000  1
  O  O78  1  0.80162400  0.99841600  0.34307700  1
  O  O79  1  0.30784700  0.97961700  0.44754500  1
  O  O80  1  0.69034000  1.00000000  0.00000000  1
  O  O81  1  0.19034000  0.00000000  0.11379000  1
  O  O82  1  0.69034000  1.00000000  0.22759000  1
  O  O83  1  0.19710200  0.99864500  0.34306700  1
  O  O84  1  0.69299200  0.98037000  0.44687600  1
