# generated using pymatgen
data_MgTiMnVZnCrFeCoCuNiSb20ClO54
_symmetry_space_group_name_H-M   'P 1'
_cell_length_a   6.67226600
_cell_length_b   9.38773700
_cell_length_c   28.77969500
_cell_angle_alpha   89.76966600
_cell_angle_beta   89.97118100
_cell_angle_gamma   89.99754900
_symmetry_Int_Tables_number   1
_chemical_formula_structural   MgTiMnVZnCrFeCoCuNiSb20ClO54
_chemical_formula_sum
'Mg1 Ti1 Mn1 V1 Zn1 Cr1 Fe1 Co1 Cu1 Ni1 Sb20 Cl1 O54'
_cell_volume   1802.67272776
_cell_formula_units_Z   1
loop_
 _symmetry_equiv_pos_site_id
 _symmetry_equiv_pos_as_xyz
  1  'x, y, z'
loop_
 _atom_site_type_symbol
 _atom_site_label
 _atom_site_symmetry_multiplicity
 _atom_site_fract_x
 _atom_site_fract_y
 _atom_site_fract_z
 _atom_site_occupancy
  Mg  Mg0  1  0.50000000  0.83232000  0.22759000  1
  Ti  Ti1  1  0.50000000  0.50000000  1.00000000  1
  Mn  Mn2  1  0.50269000  0.49570000  0.45494500  1
  V  V3  1  1.00000000  0.16768000  0.11379000  1
  Zn  Zn4  1  0.50000000  0.33232000  0.11379000  1
  Cr  Cr5  1  0.49967500  0.17762700  0.45076300  1
  Fe  Fe6  1  1.00000000  0.83232000  0.11379000  1
  Co  Co7  1  0.50000000  0.16768000  1.00000000  1
  Cu  Cu8  1  0.50000000  0.67059600  0.34514000  1
  Ni  Ni9  1  0.50000000  0.66768000  0.11379000  1
  Sb  Sb10  1  0.00000000  0.00000000  0.00000000  1
  Sb  Sb11  1  0.50000000  0.00000000  0.11379000  1
  Sb  Sb12  1  1.00000000  0.00000000  0.22759000  1
  Sb  Sb13  1  0.49937500  0.98384000  0.34426700  1
  Sb  Sb14  1  0.00022600  0.00833000  0.47456600  1
  Sb  Sb15  1  1.00000000  0.50000000  0.11379000  1
  Sb  Sb16  1  0.50000000  0.50000000  0.22759000  1
  Sb  Sb17  1  0.00054700  0.50884400  0.34675900  1
  Sb  Sb18  1  0.00000000  0.66768000  0.00000000  1
  Sb  Sb19  1  1.00000000  0.66768000  0.22759000  1
  Sb  Sb20  1  0.00065300  0.66220300  0.46697700  1
  Sb  Sb21  1  0.50000000  0.16768000  0.22759000  1
  Sb  Sb22  1  0.99988200  0.16837100  0.35262800  1
  Sb  Sb23  1  0.50000000  0.83232000  1.00000000  1
  Sb  Sb24  1  0.99978900  0.82708400  0.34767000  1
  Sb  Sb25  1  0.50178800  0.83356100  0.46553700  1
  Sb  Sb26  1  1.00000000  0.33232000  0.00000000  1
  Sb  Sb27  1  1.00000000  0.33232000  0.22759000  1
  Sb  Sb28  1  0.49985200  0.34546500  0.34381700  1
  Sb  Sb29  1  0.99999200  0.34055400  0.47241800  1
  Cl  Cl30  1  0.51688800  0.50070900  0.53272100  1
  O  O31  1  1.00000000  0.82836000  0.04494000  1
  O  O32  1  0.50000000  0.82836000  0.15874000  1
  O  O33  1  0.99980400  0.84474300  0.27065200  1
  O  O34  1  0.49636200  0.84611000  0.39543600  1
  O  O35  1  0.50000000  0.82836000  0.06885000  1
  O  O36  1  1.00000000  0.82836000  0.18264000  1
  O  O37  1  0.50055200  0.83401700  0.29980200  1
  O  O38  1  0.00120100  0.83669800  0.41841600  1
  O  O39  1  0.30253000  0.32836000  1.00000000  1
  O  O40  1  0.80253000  0.32836000  0.11379000  1
  O  O41  1  0.30253000  0.32836000  0.22759000  1
  O  O42  1  0.80075900  0.34752300  0.33785200  1
  O  O43  1  0.31666900  0.33809400  0.45622400  1
  O  O44  1  0.69747000  0.32836000  1.00000000  1
  O  O45  1  0.19747000  0.32836000  0.11379000  1
  O  O46  1  0.69747000  0.32836000  0.22759000  1
  O  O47  1  0.19900100  0.34713200  0.33751200  1
  O  O48  1  0.68626700  0.33691800  0.45343800  1
  O  O49  1  0.30253000  0.67164000  1.00000000  1
  O  O50  1  0.80253000  0.67164000  0.11379000  1
  O  O51  1  0.30253000  0.67164000  0.22759000  1
  O  O52  1  0.80004600  0.66807900  0.34155500  1
  O  O53  1  0.31055900  0.64666800  0.45311000  1
  O  O54  1  0.69747000  0.67164000  1.00000000  1
  O  O55  1  0.19747000  0.67164000  0.11379000  1
  O  O56  1  0.69747000  0.67164000  0.22759000  1
  O  O57  1  0.20001100  0.66852300  0.34140700  1
  O  O58  1  0.69284800  0.64738700  0.45102100  1
  O  O59  1  1.00000000  0.17164000  0.04494000  1
  O  O60  1  0.50000000  0.17164000  0.15874000  1
  O  O61  1  0.99978400  0.15531300  0.27066400  1
  O  O62  1  0.49618700  0.16708500  0.38510700  1
  O  O63  1  0.50000000  0.17164000  0.06885000  1
  O  O64  1  1.00000000  0.17164000  0.18264000  1
  O  O65  1  0.50027200  0.16901700  0.29917400  1
  O  O66  1  0.00406100  0.17380400  0.42560600  1
  O  O67  1  1.00000000  0.50000000  0.04332000  1
  O  O68  1  0.50000000  0.50000000  0.15711000  1
  O  O69  1  0.99950800  0.50002000  0.27169600  1
  O  O70  1  0.49710500  0.50018400  0.38789500  1
  O  O71  1  0.50000000  0.50000000  0.07048000  1
  O  O72  1  1.00000000  0.50000000  0.18427000  1
  O  O73  1  0.50001200  0.49575200  0.29527800  1
  O  O74  1  0.00313000  0.49481500  0.41583600  1
  O  O75  1  0.30966000  0.00000000  1.00000000  1
  O  O76  1  0.80966000  0.00000000  0.11379000  1
  O  O77  1  0.30966000  0.00000000  0.22759000  1
  O  O78  1  0.80231200  0.99028500  0.34394900  1
  O  O79  1  0.30921000  0.02814400  0.46211000  1
  O  O80  1  0.69034000  0.00000000  1.00000000  1
  O  O81  1  0.19034000  0.00000000  0.11379000  1
  O  O82  1  0.69034000  0.00000000  0.22759000  1
  O  O83  1  0.19648200  0.99049400  0.34341500  1
  O  O84  1  0.69175200  0.02844000  0.46046300  1
