# generated using pymatgen
data_MgTiMnVZnCrFeCoCuNiSb20ClO54
_symmetry_space_group_name_H-M   'P 1'
_cell_length_a   6.78202400
_cell_length_b   9.66205200
_cell_length_c   29.42986800
_cell_angle_alpha   90.01145200
_cell_angle_beta   89.97703900
_cell_angle_gamma   89.99937300
_symmetry_Int_Tables_number   1
_chemical_formula_structural   MgTiMnVZnCrFeCoCuNiSb20ClO54
_chemical_formula_sum
'Mg1 Ti1 Mn1 V1 Zn1 Cr1 Fe1 Co1 Cu1 Ni1 Sb20 Cl1 O54'
_cell_volume   1928.48810030
_cell_formula_units_Z   1
loop_
 _symmetry_equiv_pos_site_id
 _symmetry_equiv_pos_as_xyz
  1  'x, y, z'
loop_
 _atom_site_type_symbol
 _atom_site_label
 _atom_site_symmetry_multiplicity
 _atom_site_fract_x
 _atom_site_fract_y
 _atom_site_fract_z
 _atom_site_occupancy
  Mg  Mg0  1  0.00000000  0.00000000  0.00000000  1
  Ti  Ti1  1  0.50000000  0.83232000  0.00000000  1
  Mn  Mn2  1  0.49889000  0.50051900  0.55087400  1
  V  V3  1  0.00044100  0.82965500  0.66023900  1
  Zn  Zn4  1  1.00000000  0.66768000  0.00000000  1
  Cr  Cr5  1  0.00000000  0.33232000  0.77241000  1
  Fe  Fe6  1  0.50000000  0.33232000  0.88621000  1
  Co  Co7  1  0.50000000  0.16768000  0.00000000  1
  Cu  Cu8  1  0.50000000  0.50000000  1.00000000  1
  Ni  Ni9  1  0.50000000  0.00000000  0.88621000  1
  Sb  Sb10  1  0.00000000  0.00000000  0.77241000  1
  Sb  Sb11  1  0.50046200  0.99950800  0.65597400  1
  Sb  Sb12  1  0.99677300  0.99849100  0.56819700  1
  Sb  Sb13  1  0.00000000  0.50000000  0.88621000  1
  Sb  Sb14  1  0.50000000  0.50000000  0.77241000  1
  Sb  Sb15  1  0.99989600  0.50310000  0.65767000  1
  Sb  Sb16  1  0.50000000  0.66768000  0.88621000  1
  Sb  Sb17  1  0.00000000  0.66768000  0.77241000  1
  Sb  Sb18  1  0.50037900  0.66829700  0.65762000  1
  Sb  Sb19  1  0.00051900  0.66112600  0.53929900  1
  Sb  Sb20  1  0.00000000  0.16768000  0.88621000  1
  Sb  Sb21  1  0.50000000  0.16768000  0.77241000  1
  Sb  Sb22  1  0.00053100  0.16797000  0.66095000  1
  Sb  Sb23  1  0.49879000  0.18345300  0.53998800  1
  Sb  Sb24  1  0.00000000  0.83232000  0.88621000  1
  Sb  Sb25  1  0.50000000  0.83232000  0.77241000  1
  Sb  Sb26  1  0.49892100  0.81668000  0.54007700  1
  Sb  Sb27  1  1.00000000  0.33232000  0.00000000  1
  Sb  Sb28  1  0.50048800  0.33257400  0.65781100  1
  Sb  Sb29  1  0.00045500  0.33972400  0.53855000  1
  Cl  Cl30  1  0.49097000  0.50203300  0.47549300  1
  O  O31  1  0.00000000  0.82836000  0.95506000  1
  O  O32  1  0.50000000  0.82836000  0.84126000  1
  O  O33  1  0.00019600  0.84474300  0.72934800  1
  O  O34  1  0.50124200  0.83731600  0.61187800  1
  O  O35  1  0.50000000  0.82836000  0.93115000  1
  O  O36  1  0.00000000  0.82836000  0.81736000  1
  O  O37  1  0.49979300  0.83875600  0.70230200  1
  O  O38  1  0.99841000  0.81041900  0.59137600  1
  O  O39  1  0.69747000  0.32836000  1.00000000  1
  O  O40  1  0.19747000  0.32836000  0.88621000  1
  O  O41  1  0.69747000  0.32836000  0.77241000  1
  O  O42  1  0.19883200  0.32698800  0.66180800  1
  O  O43  1  0.68702400  0.34741900  0.55237200  1
  O  O44  1  0.30253000  0.32836000  1.00000000  1
  O  O45  1  0.80253000  0.32836000  0.88621000  1
  O  O46  1  0.30253000  0.32836000  0.77241000  1
  O  O47  1  0.80189100  0.32673600  0.66218400  1
  O  O48  1  0.31175900  0.34755500  0.55421400  1
  O  O49  1  0.69747000  0.67164000  0.00000000  1
  O  O50  1  0.19747000  0.67164000  0.88621000  1
  O  O51  1  0.69747000  0.67164000  0.77241000  1
  O  O52  1  0.19628900  0.67431300  0.66179900  1
  O  O53  1  0.68714900  0.65310700  0.55287000  1
  O  O54  1  0.30253000  0.67164000  0.00000000  1
  O  O55  1  0.80253000  0.67164000  0.88621000  1
  O  O56  1  0.30253000  0.67164000  0.77241000  1
  O  O57  1  0.80431300  0.67451400  0.66213600  1
  O  O58  1  0.31176500  0.65295900  0.55472800  1
  O  O59  1  0.00000000  0.17164000  0.95506000  1
  O  O60  1  0.50000000  0.17164000  0.84126000  1
  O  O61  1  0.00021600  0.15531300  0.72933600  1
  O  O62  1  0.50142700  0.16335400  0.61180300  1
  O  O63  1  0.50000000  0.17164000  0.93115000  1
  O  O64  1  0.00000000  0.17164000  0.81736000  1
  O  O65  1  0.49986100  0.16091600  0.70244900  1
  O  O66  1  0.99818600  0.19078300  0.59084100  1
  O  O67  1  0.00000000  0.50000000  0.95668000  1
  O  O68  1  0.50000000  0.50000000  0.84289000  1
  O  O69  1  0.00049200  0.50002000  0.72830400  1
  O  O70  1  0.50400800  0.50017300  0.61508500  1
  O  O71  1  0.50000000  0.50000000  0.92952000  1
  O  O72  1  0.00000000  0.50000000  0.81573000  1
  O  O73  1  0.49986800  0.50050800  0.70211500  1
  O  O74  1  0.99771900  0.49965900  0.58518600  1
  O  O75  1  0.69034000  1.00000000  1.00000000  1
  O  O76  1  0.19034000  0.00000000  0.88621000  1
  O  O77  1  0.69034000  1.00000000  0.77241000  1
  O  O78  1  0.18831700  0.99914700  0.65116600  1
  O  O79  1  0.76285000  0.99994200  0.53160800  1
  O  O80  1  0.30966000  0.00000000  1.00000000  1
  O  O81  1  0.80966000  1.00000000  0.88621000  1
  O  O82  1  0.30966000  0.00000000  0.77241000  1
  O  O83  1  0.81267600  0.99916600  0.65137400  1
  O  O84  1  0.22861900  0.00044000  0.53060300  1
