# generated using pymatgen
data_MgTiMnVZnCrFeCoCuNiSb20ClO54
_symmetry_space_group_name_H-M   'P 1'
_cell_length_a   6.64684200
_cell_length_b   9.57939900
_cell_length_c   28.67392200
_cell_angle_alpha   89.90388500
_cell_angle_beta   90.58058400
_cell_angle_gamma   89.92339800
_symmetry_Int_Tables_number   1
_chemical_formula_structural   MgTiMnVZnCrFeCoCuNiSb20ClO54
_chemical_formula_sum
'Mg1 Ti1 Mn1 V1 Zn1 Cr1 Fe1 Co1 Cu1 Ni1 Sb20 Cl1 O54'
_cell_volume   1825.64953794
_cell_formula_units_Z   1
loop_
 _symmetry_equiv_pos_site_id
 _symmetry_equiv_pos_as_xyz
  1  'x, y, z'
loop_
 _atom_site_type_symbol
 _atom_site_label
 _atom_site_symmetry_multiplicity
 _atom_site_fract_x
 _atom_site_fract_y
 _atom_site_fract_z
 _atom_site_occupancy
  Mg  Mg0  1  0.50000000  0.83232000  0.00000000  1
  Ti  Ti1  1  0.50000000  0.33232000  0.88621000  1
  Mn  Mn2  1  0.50401700  0.48938700  0.54319300  1
  V  V3  1  0.00361500  0.95842200  0.53901600  1
  Zn  Zn4  1  0.00000000  0.83232000  0.88621000  1
  Cr  Cr5  1  1.00000000  0.16768000  0.88621000  1
  Fe  Fe6  1  0.00600800  0.32062000  0.54811700  1
  Co  Co7  1  0.50000000  0.50000000  0.00000000  1
  Cu  Cu8  1  0.00000000  0.66768000  0.77241000  1
  Ni  Ni9  1  0.00000000  0.50000000  0.88621000  1
  Sb  Sb10  1  0.00000000  0.00000000  0.00000000  1
  Sb  Sb11  1  0.50000000  0.00000000  0.88621000  1
  Sb  Sb12  1  1.00000000  1.00000000  0.77241000  1
  Sb  Sb13  1  0.49713100  0.98602100  0.64830900  1
  Sb  Sb14  1  0.50000000  0.50000000  0.77241000  1
  Sb  Sb15  1  0.97083000  0.50246300  0.65819600  1
  Sb  Sb16  1  1.00000000  0.66768000  0.00000000  1
  Sb  Sb17  1  0.50000000  0.66768000  0.88621000  1
  Sb  Sb18  1  0.48796600  0.66840900  0.64186000  1
  Sb  Sb19  1  0.00211300  0.65071700  0.53242100  1
  Sb  Sb20  1  0.50000000  0.16768000  0.00000000  1
  Sb  Sb21  1  0.50000000  0.16768000  0.77241000  1
  Sb  Sb22  1  0.99292000  0.17615100  0.64526800  1
  Sb  Sb23  1  0.50103100  0.17528300  0.53741900  1
  Sb  Sb24  1  0.50000000  0.83232000  0.77241000  1
  Sb  Sb25  1  0.99671300  0.83305000  0.65967500  1
  Sb  Sb26  1  0.49913100  0.80234900  0.52171900  1
  Sb  Sb27  1  1.00000000  0.33232000  0.00000000  1
  Sb  Sb28  1  0.00000000  0.33232000  0.77241000  1
  Sb  Sb29  1  0.49156600  0.32794000  0.66062700  1
  Cl  Cl30  1  0.49232500  0.52837700  0.46564300  1
  O  O31  1  0.00000000  0.82836000  0.95506000  1
  O  O32  1  0.50000000  0.82836000  0.84126000  1
  O  O33  1  0.00019600  0.84474300  0.72934800  1
  O  O34  1  0.51911100  0.92630400  0.57966600  1
  O  O35  1  0.50000000  0.82836000  0.93115000  1
  O  O36  1  0.00000000  0.82836000  0.81736000  1
  O  O37  1  0.48685300  0.84329500  0.70227200  1
  O  O38  1  0.99060500  0.82110500  0.58575000  1
  O  O39  1  0.69747000  0.32836000  0.00000000  1
  O  O40  1  0.19747000  0.32836000  0.88621000  1
  O  O41  1  0.69747000  0.32836000  0.77241000  1
  O  O42  1  0.20271900  0.33106900  0.66928000  1
  O  O43  1  0.71167200  0.32694900  0.54025500  1
  O  O44  1  0.30253000  0.32836000  0.00000000  1
  O  O45  1  0.80253000  0.32836000  0.88621000  1
  O  O46  1  0.30253000  0.32836000  0.77241000  1
  O  O47  1  0.77623700  0.30817000  0.67532300  1
  O  O48  1  0.30615000  0.33797200  0.53857900  1
  O  O49  1  0.69747000  0.67164000  0.00000000  1
  O  O50  1  0.19747000  0.67164000  0.88621000  1
  O  O51  1  0.69747000  0.67164000  0.77241000  1
  O  O52  1  0.17903300  0.66961300  0.66252600  1
  O  O53  1  0.68563600  0.64454900  0.55265300  1
  O  O54  1  0.30253000  0.67164000  0.00000000  1
  O  O55  1  0.80253000  0.67164000  0.88621000  1
  O  O56  1  0.30253000  0.67164000  0.77241000  1
  O  O57  1  0.79376700  0.68697200  0.66526400  1
  O  O58  1  0.31206000  0.65760700  0.55316400  1
  O  O59  1  0.00000000  0.17164000  0.95506000  1
  O  O60  1  0.50000000  0.17164000  0.84126000  1
  O  O61  1  0.00021600  0.15531300  0.72933600  1
  O  O62  1  0.49264100  0.17768600  0.61088200  1
  O  O63  1  0.50000000  0.17164000  0.93115000  1
  O  O64  1  0.00000000  0.17164000  0.81736000  1
  O  O65  1  0.48036900  0.14818400  0.70054100  1
  O  O66  1  0.02634500  0.12720300  0.55859800  1
  O  O67  1  0.00000000  0.50000000  0.95668000  1
  O  O68  1  0.50000000  0.50000000  0.84289000  1
  O  O69  1  0.00049200  0.50002000  0.72830400  1
  O  O70  1  0.50896100  0.47015400  0.61061600  1
  O  O71  1  0.50000000  0.50000000  0.92952000  1
  O  O72  1  0.00000000  0.50000000  0.81573000  1
  O  O73  1  0.50505400  0.50814700  0.69777400  1
  O  O74  1  0.01340600  0.49182800  0.57476000  1
  O  O75  1  0.69034000  0.00000000  0.00000000  1
  O  O76  1  0.19034000  0.00000000  0.88621000  1
  O  O77  1  0.69034000  0.00000000  0.77241000  1
  O  O78  1  0.18812300  0.99121800  0.65112900  1
  O  O79  1  0.79911500  0.94368400  0.50566600  1
  O  O80  1  0.30966000  0.00000000  0.00000000  1
  O  O81  1  0.80966000  0.00000000  0.88621000  1
  O  O82  1  0.30966000  1.00000000  0.77241000  1
  O  O83  1  0.80501400  0.99453700  0.65548600  1
  O  O84  1  0.20753300  0.92238500  0.50708500  1
