# generated using pymatgen
data_MgTiMnVZnCrFeCoCuNiSb20ClO54
_symmetry_space_group_name_H-M   'P 1'
_cell_length_a   6.66442500
_cell_length_b   9.40261200
_cell_length_c   28.65035400
_cell_angle_alpha   90.04332200
_cell_angle_beta   89.94288800
_cell_angle_gamma   89.99017600
_symmetry_Int_Tables_number   1
_chemical_formula_structural   MgTiMnVZnCrFeCoCuNiSb20ClO54
_chemical_formula_sum
'Mg1 Ti1 Mn1 V1 Zn1 Cr1 Fe1 Co1 Cu1 Ni1 Sb20 Cl1 O54'
_cell_volume   1795.31577197
_cell_formula_units_Z   1
loop_
 _symmetry_equiv_pos_site_id
 _symmetry_equiv_pos_as_xyz
  1  'x, y, z'
loop_
 _atom_site_type_symbol
 _atom_site_label
 _atom_site_symmetry_multiplicity
 _atom_site_fract_x
 _atom_site_fract_y
 _atom_site_fract_z
 _atom_site_occupancy
  Mg  Mg0  1  0.50000000  0.83232000  0.22759000  1
  Ti  Ti1  1  0.00000000  1.00000000  0.22759000  1
  Mn  Mn2  1  0.50249800  0.50184800  0.45081500  1
  V  V3  1  1.00000000  0.33232000  0.00000000  1
  Zn  Zn4  1  0.50000000  0.66768000  0.11379000  1
  Cr  Cr5  1  0.00000000  0.66768000  0.22759000  1
  Fe  Fe6  1  0.50027700  0.33300600  0.34411400  1
  Co  Co7  1  0.50000000  1.00000000  0.11379000  1
  Cu  Cu8  1  0.50000000  0.16768000  1.00000000  1
  Ni  Ni9  1  0.00000000  0.16768000  0.11379000  1
  Sb  Sb10  1  0.00000000  0.00000000  0.00000000  1
  Sb  Sb11  1  0.50029100  0.00609800  0.34547400  1
  Sb  Sb12  1  0.99986200  0.99738900  0.46677100  1
  Sb  Sb13  1  0.50000000  0.50000000  1.00000000  1
  Sb  Sb14  1  0.00000000  0.50000000  0.11379000  1
  Sb  Sb15  1  0.50000000  0.50000000  0.22759000  1
  Sb  Sb16  1  0.00064300  0.49375700  0.34251300  1
  Sb  Sb17  1  0.00000000  0.66768000  0.00000000  1
  Sb  Sb18  1  0.50019600  0.66351900  0.34171400  1
  Sb  Sb19  1  0.00019800  0.65914000  0.46715300  1
  Sb  Sb20  1  0.50000000  0.16768000  0.22759000  1
  Sb  Sb21  1  0.00047000  0.17237200  0.34360500  1
  Sb  Sb22  1  0.50222800  0.17554400  0.46256500  1
  Sb  Sb23  1  0.50000000  0.83232000  1.00000000  1
  Sb  Sb24  1  0.00000000  0.83232000  0.11379000  1
  Sb  Sb25  1  0.00051300  0.83266600  0.34223400  1
  Sb  Sb26  1  0.50246300  0.82540500  0.46557100  1
  Sb  Sb27  1  0.50000000  0.33232000  0.11379000  1
  Sb  Sb28  1  0.00000000  0.33232000  0.22759000  1
  Sb  Sb29  1  0.00064500  0.33967700  0.46369900  1
  Cl  Cl30  1  0.51345100  0.50061600  0.52909500  1
  O  O31  1  0.00000000  0.82836000  0.04494000  1
  O  O32  1  0.50000000  0.82836000  0.15874000  1
  O  O33  1  0.99980400  0.84474300  0.27065200  1
  O  O34  1  0.49743700  0.82950100  0.38879900  1
  O  O35  1  0.50000000  0.82836000  0.06885000  1
  O  O36  1  0.00000000  0.82836000  0.18264000  1
  O  O37  1  0.50109800  0.83740900  0.30142700  1
  O  O38  1  0.00478500  0.82495000  0.42048800  1
  O  O39  1  0.30253000  0.32836000  0.00000000  1
  O  O40  1  0.80253000  0.32836000  0.11379000  1
  O  O41  1  0.30253000  0.32836000  0.22759000  1
  O  O42  1  0.80441600  0.33259400  0.33884800  1
  O  O43  1  0.31042500  0.35314200  0.44874600  1
  O  O44  1  0.69747000  0.32836000  1.00000000  1
  O  O45  1  0.19747000  0.32836000  0.11379000  1
  O  O46  1  0.69747000  0.32836000  0.22759000  1
  O  O47  1  0.19635800  0.33234400  0.33825300  1
  O  O48  1  0.69316000  0.35272400  0.44667500  1
  O  O49  1  0.30253000  0.67164000  0.00000000  1
  O  O50  1  0.80253000  0.67164000  0.11379000  1
  O  O51  1  0.30253000  0.67164000  0.22759000  1
  O  O52  1  0.80232600  0.65354700  0.33857800  1
  O  O53  1  0.31102600  0.65077700  0.44958600  1
  O  O54  1  0.69747000  0.67164000  1.00000000  1
  O  O55  1  0.19747000  0.67164000  0.11379000  1
  O  O56  1  0.69747000  0.67164000  0.22759000  1
  O  O57  1  0.19802300  0.65389600  0.33800200  1
  O  O58  1  0.69271200  0.65119000  0.44708800  1
  O  O59  1  0.00000000  0.17164000  0.04494000  1
  O  O60  1  0.50000000  0.17164000  0.15874000  1
  O  O61  1  0.99978400  0.15531300  0.27066400  1
  O  O62  1  0.49749100  0.17210400  0.38872900  1
  O  O63  1  0.50000000  0.17164000  0.06885000  1
  O  O64  1  0.00000000  0.17164000  0.18264000  1
  O  O65  1  0.50086800  0.16955000  0.29844300  1
  O  O66  1  0.00339900  0.17392900  0.41386500  1
  O  O67  1  0.00000000  0.50000000  0.04332000  1
  O  O68  1  0.50000000  0.50000000  0.15711000  1
  O  O69  1  0.99950800  0.50002000  0.27169600  1
  O  O70  1  0.49629300  0.49968100  0.38438800  1
  O  O71  1  0.50000000  0.50000000  0.07048000  1
  O  O72  1  0.00000000  0.50000000  0.18427000  1
  O  O73  1  0.50057500  0.49399800  0.29693400  1
  O  O74  1  0.00295200  0.50020900  0.41184300  1
  O  O75  1  0.30966000  0.00000000  0.00000000  1
  O  O76  1  0.80966000  1.00000000  0.11379000  1
  O  O77  1  0.30966000  0.00000000  0.22759000  1
  O  O78  1  0.80175400  0.01354000  0.34251200  1
  O  O79  1  0.29988000  0.99852500  0.44741600  1
  O  O80  1  0.69034000  1.00000000  1.00000000  1
  O  O81  1  0.19034000  0.00000000  0.11379000  1
  O  O82  1  0.69034000  1.00000000  0.22759000  1
  O  O83  1  0.19878400  0.01310000  0.34237500  1
  O  O84  1  0.70284200  0.99815300  0.44513800  1
