# generated using pymatgen
data_MgTiMnVZnCrFeCoCuNiSb20ClO54
_symmetry_space_group_name_H-M   'P 1'
_cell_length_a   6.64535400
_cell_length_b   9.43810100
_cell_length_c   28.87544200
_cell_angle_alpha   90.18444300
_cell_angle_beta   89.97854700
_cell_angle_gamma   89.99316900
_symmetry_Int_Tables_number   1
_chemical_formula_structural   MgTiMnVZnCrFeCoCuNiSb20ClO54
_chemical_formula_sum
'Mg1 Ti1 Mn1 V1 Zn1 Cr1 Fe1 Co1 Cu1 Ni1 Sb20 Cl1 O54'
_cell_volume   1811.04440259
_cell_formula_units_Z   1
loop_
 _symmetry_equiv_pos_site_id
 _symmetry_equiv_pos_as_xyz
  1  'x, y, z'
loop_
 _atom_site_type_symbol
 _atom_site_label
 _atom_site_symmetry_multiplicity
 _atom_site_fract_x
 _atom_site_fract_y
 _atom_site_fract_z
 _atom_site_occupancy
  Mg  Mg0  1  0.00046000  0.16543000  0.65826300  1
  Ti  Ti1  1  0.50000000  0.00000000  0.88621000  1
  Mn  Mn2  1  0.49897300  0.50136300  0.54586200  1
  V  V3  1  0.00000000  0.50000000  0.88621000  1
  Zn  Zn4  1  0.00000000  0.83232000  0.88621000  1
  Cr  Cr5  1  0.50000000  0.50000000  0.00000000  1
  Fe  Fe6  1  0.50000000  0.83232000  0.77241000  1
  Co  Co7  1  0.00000000  0.00000000  0.77241000  1
  Cu  Cu8  1  0.99672600  0.00738300  0.56168800  1
  Ni  Ni9  1  0.00000000  0.16768000  0.88621000  1
  Sb  Sb10  1  0.00000000  0.00000000  0.00000000  1
  Sb  Sb11  1  0.50019500  0.99856600  0.65455400  1
  Sb  Sb12  1  0.50000000  0.50000000  0.77241000  1
  Sb  Sb13  1  0.99917700  0.48564700  0.64776900  1
  Sb  Sb14  1  0.00000000  0.66768000  0.00000000  1
  Sb  Sb15  1  0.50000000  0.66768000  0.88621000  1
  Sb  Sb16  1  0.00000000  0.66768000  0.77241000  1
  Sb  Sb17  1  0.50012000  0.67557700  0.65668400  1
  Sb  Sb18  1  0.00018100  0.68534500  0.53615500  1
  Sb  Sb19  1  0.50000000  0.16768000  0.00000000  1
  Sb  Sb20  1  0.50000000  0.16768000  0.77241000  1
  Sb  Sb21  1  0.49646100  0.17009000  0.53131800  1
  Sb  Sb22  1  0.50000000  0.83232000  0.00000000  1
  Sb  Sb23  1  0.99996200  0.84043400  0.65993800  1
  Sb  Sb24  1  0.49735500  0.83288900  0.53165100  1
  Sb  Sb25  1  0.00000000  0.33232000  0.00000000  1
  Sb  Sb26  1  0.50000000  0.33232000  0.88621000  1
  Sb  Sb27  1  0.00000000  0.33232000  0.77241000  1
  Sb  Sb28  1  0.50061000  0.33126300  0.65286200  1
  Sb  Sb29  1  0.00006700  0.31928500  0.53397700  1
  Cl  Cl30  1  0.48649100  0.49608700  0.46967700  1
  O  O31  1  0.00000000  0.82836000  0.95506000  1
  O  O32  1  0.50000000  0.82836000  0.84126000  1
  O  O33  1  0.00019600  0.84474300  0.72934800  1
  O  O34  1  0.50149600  0.83334400  0.60986600  1
  O  O35  1  0.50000000  0.82836000  0.93115000  1
  O  O36  1  0.00000000  0.82836000  0.81736000  1
  O  O37  1  0.49852200  0.84001900  0.70095200  1
  O  O38  1  0.99612000  0.81593200  0.59115300  1
  O  O39  1  0.69747000  0.32836000  0.00000000  1
  O  O40  1  0.19747000  0.32836000  0.88621000  1
  O  O41  1  0.69747000  0.32836000  0.77241000  1
  O  O42  1  0.20991000  0.32616900  0.66106300  1
  O  O43  1  0.68331700  0.34803500  0.54978800  1
  O  O44  1  0.30253000  0.32836000  0.00000000  1
  O  O45  1  0.80253000  0.32836000  0.88621000  1
  O  O46  1  0.30253000  0.32836000  0.77241000  1
  O  O47  1  0.79115900  0.32538400  0.66193900  1
  O  O48  1  0.31573300  0.34911700  0.55244500  1
  O  O49  1  0.69747000  0.67164000  0.00000000  1
  O  O50  1  0.19747000  0.67164000  0.88621000  1
  O  O51  1  0.69747000  0.67164000  0.77241000  1
  O  O52  1  0.20165100  0.67812700  0.66251600  1
  O  O53  1  0.68587900  0.65555000  0.54800300  1
  O  O54  1  0.30253000  0.67164000  0.00000000  1
  O  O55  1  0.80253000  0.67164000  0.88621000  1
  O  O56  1  0.30253000  0.67164000  0.77241000  1
  O  O57  1  0.79814800  0.67883500  0.66338900  1
  O  O58  1  0.31313600  0.65546400  0.55045800  1
  O  O59  1  1.00000000  0.17164000  0.95506000  1
  O  O60  1  0.50000000  0.17164000  0.84126000  1
  O  O61  1  0.00021600  0.15531300  0.72933600  1
  O  O62  1  0.50211300  0.16241000  0.61027000  1
  O  O63  1  0.50000000  0.17164000  0.93115000  1
  O  O64  1  0.00000000  0.17164000  0.81736000  1
  O  O65  1  0.49910400  0.16631700  0.70039800  1
  O  O66  1  0.99724100  0.19451600  0.58720500  1
  O  O67  1  0.00000000  0.50000000  0.95668000  1
  O  O68  1  0.50000000  0.50000000  0.84289000  1
  O  O69  1  0.00049200  0.50002000  0.72830400  1
  O  O70  1  0.50694100  0.50740100  0.61394500  1
  O  O71  1  0.50000000  0.50000000  0.92952000  1
  O  O72  1  1.00000000  0.50000000  0.81573000  1
  O  O73  1  0.49950400  0.50205200  0.70031500  1
  O  O74  1  0.99765600  0.50189800  0.57082000  1
  O  O75  1  0.69034000  0.00000000  0.00000000  1
  O  O76  1  0.19034000  0.00000000  0.88621000  1
  O  O77  1  0.69034000  0.00000000  0.77241000  1
  O  O78  1  0.19843900  0.99840900  0.65508300  1
  O  O79  1  0.70854400  0.00004900  0.54671200  1
  O  O80  1  0.30966000  0.00000000  0.00000000  1
  O  O81  1  0.80966000  0.00000000  0.88621000  1
  O  O82  1  0.30966000  0.00000000  0.77241000  1
  O  O83  1  0.80186500  0.99849200  0.65556100  1
  O  O84  1  0.28498100  0.99920700  0.54741700  1
