# generated using pymatgen
data_MgTiMnVZnCrFeCoCuNiSb20ClO54
_symmetry_space_group_name_H-M   'P 1'
_cell_length_a   6.68884400
_cell_length_b   9.67229800
_cell_length_c   29.95263100
_cell_angle_alpha   89.97930100
_cell_angle_beta   89.92818300
_cell_angle_gamma   89.96788300
_symmetry_Int_Tables_number   1
_chemical_formula_structural   MgTiMnVZnCrFeCoCuNiSb20ClO54
_chemical_formula_sum
'Mg1 Ti1 Mn1 V1 Zn1 Cr1 Fe1 Co1 Cu1 Ni1 Sb20 Cl1 O54'
_cell_volume   1937.82821246
_cell_formula_units_Z   1
loop_
 _symmetry_equiv_pos_site_id
 _symmetry_equiv_pos_as_xyz
  1  'x, y, z'
loop_
 _atom_site_type_symbol
 _atom_site_label
 _atom_site_symmetry_multiplicity
 _atom_site_fract_x
 _atom_site_fract_y
 _atom_site_fract_z
 _atom_site_occupancy
  Mg  Mg0  1  0.50116900  0.66599100  0.66098800  1
  Ti  Ti1  1  0.00031800  0.79718000  0.66406600  1
  Mn  Mn2  1  0.49680300  0.51530900  0.55745800  1
  V  V3  1  0.00126700  0.49889800  0.66212200  1
  Zn  Zn4  1  0.49251600  0.81093400  0.55948400  1
  Cr  Cr5  1  0.00344600  0.34926600  0.56732500  1
  Fe  Fe6  1  0.50184400  0.34695700  0.66343100  1
  Co  Co7  1  0.99444000  0.64909600  0.56088800  1
  Cu  Cu8  1  0.50000000  0.16768000  0.77241000  1
  Ni  Ni9  1  0.00000000  0.83232000  0.88621000  1
  Sb  Sb10  1  0.00000000  0.00000000  0.00000000  1
  Sb  Sb11  1  0.50000000  0.00000000  0.88621000  1
  Sb  Sb12  1  0.00000000  0.00000000  0.77241000  1
  Sb  Sb13  1  0.50133300  0.00833900  0.66170200  1
  Sb  Sb14  1  0.00133500  0.98028500  0.56499100  1
  Sb  Sb15  1  0.50000000  0.50000000  0.00000000  1
  Sb  Sb16  1  0.00000000  0.50000000  0.88621000  1
  Sb  Sb17  1  0.50000000  0.50000000  0.77241000  1
  Sb  Sb18  1  0.00000000  0.33232000  0.00000000  1
  Sb  Sb19  1  0.50000000  0.33232000  0.88621000  1
  Sb  Sb20  1  0.00000000  0.33232000  0.77241000  1
  Sb  Sb21  1  0.50000000  0.83232000  0.00000000  1
  Sb  Sb22  1  0.50000000  0.83232000  0.77241000  1
  Sb  Sb23  1  0.50000000  0.16768000  0.00000000  1
  Sb  Sb24  1  0.00000000  0.16768000  0.88621000  1
  Sb  Sb25  1  0.00173500  0.17071300  0.66177600  1
  Sb  Sb26  1  0.50574300  0.19153000  0.54936500  1
  Sb  Sb27  1  0.00000000  0.66768000  0.00000000  1
  Sb  Sb28  1  0.50000000  0.66768000  0.88621000  1
  Sb  Sb29  1  0.00000000  0.66768000  0.77241000  1
  Cl  Cl30  1  0.50087200  0.47258400  0.48394900  1
  O  O31  1  0.00000000  0.17164000  0.95506000  1
  O  O32  1  0.50000000  0.17164000  0.84126000  1
  O  O33  1  0.99980400  0.15525700  0.72934800  1
  O  O34  1  0.50215400  0.16869300  0.61582100  1
  O  O35  1  0.50000000  0.17164000  0.93115000  1
  O  O36  1  0.00000000  0.17164000  0.81736000  1
  O  O37  1  0.50242200  0.17024400  0.70193800  1
  O  O38  1  0.00416400  0.16572400  0.59292500  1
  O  O39  1  0.30253000  0.67164000  0.00000000  1
  O  O40  1  0.80253000  0.67164000  0.88621000  1
  O  O41  1  0.30253000  0.67164000  0.77241000  1
  O  O42  1  0.81544000  0.66236600  0.66693200  1
  O  O43  1  0.29100500  0.64853600  0.55454700  1
  O  O44  1  0.69747000  0.67164000  0.00000000  1
  O  O45  1  0.19747000  0.67164000  0.88621000  1
  O  O46  1  0.69747000  0.67164000  0.77241000  1
  O  O47  1  0.18625300  0.66293200  0.66687900  1
  O  O48  1  0.70303000  0.65074500  0.55436900  1
  O  O49  1  0.30253000  0.32836000  0.00000000  1
  O  O50  1  0.80253000  0.32836000  0.88621000  1
  O  O51  1  0.30253000  0.32836000  0.77241000  1
  O  O52  1  0.81521600  0.33619600  0.66382200  1
  O  O53  1  0.27776500  0.35133200  0.55825500  1
  O  O54  1  0.69747000  0.32836000  0.00000000  1
  O  O55  1  0.19747000  0.32836000  0.88621000  1
  O  O56  1  0.69747000  0.32836000  0.77241000  1
  O  O57  1  0.18771800  0.33626600  0.66402300  1
  O  O58  1  0.72885000  0.34831000  0.55775900  1
  O  O59  1  0.00000000  0.82836000  0.95506000  1
  O  O60  1  0.50000000  0.82836000  0.84126000  1
  O  O61  1  0.99978400  0.84468700  0.72933600  1
  O  O62  1  0.50279800  0.84775300  0.62267400  1
  O  O63  1  0.50000000  0.82836000  0.93115000  1
  O  O64  1  0.00000000  0.82836000  0.81736000  1
  O  O65  1  0.50260100  0.84109300  0.70642300  1
  O  O66  1  0.99952900  0.81093800  0.59930100  1
  O  O67  1  0.00000000  0.50000000  0.95668000  1
  O  O68  1  0.50000000  0.50000000  0.84289000  1
  O  O69  1  0.99950800  0.49998000  0.72830400  1
  O  O70  1  0.50172900  0.49279000  0.61936600  1
  O  O71  1  0.50000000  0.50000000  0.92952000  1
  O  O72  1  0.00000000  0.50000000  0.81573000  1
  O  O73  1  0.50068300  0.49835400  0.70688700  1
  O  O74  1  0.00020800  0.50241800  0.60315700  1
  O  O75  1  0.30966000  0.00000000  0.00000000  1
  O  O76  1  0.80966000  0.00000000  0.88621000  1
  O  O77  1  0.30966000  0.00000000  0.77241000  1
  O  O78  1  0.81322900  0.00571000  0.65814500  1
  O  O79  1  0.26891500  0.98246200  0.54199300  1
  O  O80  1  0.69034000  0.00000000  0.00000000  1
  O  O81  1  0.19034000  0.00000000  0.88621000  1
  O  O82  1  0.69034000  0.00000000  0.77241000  1
  O  O83  1  0.19041400  0.00586300  0.65863000  1
  O  O84  1  0.73471600  0.99031000  0.54205700  1
