# generated using pymatgen
data_MgTiMnVZnCrFeCoCuNiSb20ClO54
_symmetry_space_group_name_H-M   'P 1'
_cell_length_a   6.66778500
_cell_length_b   9.49243200
_cell_length_c   28.75835000
_cell_angle_alpha   89.97442300
_cell_angle_beta   89.98938500
_cell_angle_gamma   89.99823600
_symmetry_Int_Tables_number   1
_chemical_formula_structural   MgTiMnVZnCrFeCoCuNiSb20ClO54
_chemical_formula_sum
'Mg1 Ti1 Mn1 V1 Zn1 Cr1 Fe1 Co1 Cu1 Ni1 Sb20 Cl1 O54'
_cell_volume   1820.21628870
_cell_formula_units_Z   1
loop_
 _symmetry_equiv_pos_site_id
 _symmetry_equiv_pos_as_xyz
  1  'x, y, z'
loop_
 _atom_site_type_symbol
 _atom_site_label
 _atom_site_symmetry_multiplicity
 _atom_site_fract_x
 _atom_site_fract_y
 _atom_site_fract_z
 _atom_site_occupancy
  Mg  Mg0  1  0.50000000  0.66768000  0.88621000  1
  Ti  Ti1  1  1.00000000  0.50000000  0.88621000  1
  Mn  Mn2  1  0.50146500  0.50005100  0.54793200  1
  V  V3  1  0.00042300  0.84439100  0.65509400  1
  Zn  Zn4  1  0.50000000  0.33232000  0.88621000  1
  Cr  Cr5  1  0.50000000  0.16768000  0.77241000  1
  Fe  Fe6  1  0.50000000  0.50000000  1.00000000  1
  Co  Co7  1  0.00003900  0.16400700  0.65632300  1
  Cu  Cu8  1  0.00146500  0.99561800  0.55350300  1
  Ni  Ni9  1  0.50000000  1.00000000  0.88621000  1
  Sb  Sb10  1  0.00000000  0.00000000  0.00000000  1
  Sb  Sb11  1  1.00000000  1.00000000  0.77241000  1
  Sb  Sb12  1  0.50016400  0.00038100  0.65443100  1
  Sb  Sb13  1  0.50000000  0.50000000  0.77241000  1
  Sb  Sb14  1  0.00059200  0.50116400  0.65402900  1
  Sb  Sb15  1  1.00000000  0.33232000  1.00000000  1
  Sb  Sb16  1  1.00000000  0.33232000  0.77241000  1
  Sb  Sb17  1  0.50002700  0.32794500  0.65662700  1
  Sb  Sb18  1  0.00133600  0.32434500  0.54135200  1
  Sb  Sb19  1  0.50000000  0.83232000  1.00000000  1
  Sb  Sb20  1  1.00000000  0.83232000  0.88621000  1
  Sb  Sb21  1  0.50000000  0.83232000  0.77241000  1
  Sb  Sb22  1  0.50177100  0.82740700  0.52709900  1
  Sb  Sb23  1  0.50000000  0.16768000  1.00000000  1
  Sb  Sb24  1  1.00000000  0.16768000  0.88621000  1
  Sb  Sb25  1  0.50190300  0.16526800  0.53431800  1
  Sb  Sb26  1  0.00000000  0.66768000  1.00000000  1
  Sb  Sb27  1  1.00000000  0.66768000  0.77241000  1
  Sb  Sb28  1  0.50017100  0.67249000  0.65394100  1
  Sb  Sb29  1  0.00059500  0.68385700  0.53901000  1
  Cl  Cl30  1  0.50589600  0.50225500  0.47125100  1
  O  O31  1  1.00000000  0.17164000  0.95506000  1
  O  O32  1  0.50000000  0.17164000  0.84126000  1
  O  O33  1  0.99980400  0.15525700  0.72934800  1
  O  O34  1  0.49993900  0.16519800  0.61026300  1
  O  O35  1  0.50000000  0.17164000  0.93115000  1
  O  O36  1  1.00000000  0.17164000  0.81736000  1
  O  O37  1  0.50146100  0.16186400  0.70123600  1
  O  O38  1  0.00268600  0.18013800  0.59048400  1
  O  O39  1  0.30253000  0.67164000  1.00000000  1
  O  O40  1  0.80253000  0.67164000  0.88621000  1
  O  O41  1  0.30253000  0.67164000  0.77241000  1
  O  O42  1  0.80555400  0.67462500  0.66277500  1
  O  O43  1  0.31442400  0.65722900  0.55187600  1
  O  O44  1  0.69747000  0.67164000  1.00000000  1
  O  O45  1  0.19747000  0.67164000  0.88621000  1
  O  O46  1  0.69747000  0.67164000  0.77241000  1
  O  O47  1  0.19492100  0.67456500  0.66308800  1
  O  O48  1  0.68743000  0.65660400  0.55291600  1
  O  O49  1  0.30253000  0.32836000  1.00000000  1
  O  O50  1  0.80253000  0.32836000  0.88621000  1
  O  O51  1  0.30253000  0.32836000  0.77241000  1
  O  O52  1  0.80228900  0.33583000  0.66041500  1
  O  O53  1  0.31616500  0.35148700  0.55209600  1
  O  O54  1  0.69747000  0.32836000  1.00000000  1
  O  O55  1  0.19747000  0.32836000  0.88621000  1
  O  O56  1  0.69747000  0.32836000  0.77241000  1
  O  O57  1  0.19759400  0.33567900  0.66110000  1
  O  O58  1  0.68641800  0.35204200  0.55304300  1
  O  O59  1  1.00000000  0.82836000  0.95506000  1
  O  O60  1  0.50000000  0.82836000  0.84126000  1
  O  O61  1  0.99978400  0.84468700  0.72933600  1
  O  O62  1  0.49868200  0.83506600  0.61086300  1
  O  O63  1  0.50000000  0.82836000  0.93115000  1
  O  O64  1  1.00000000  0.82836000  0.81736000  1
  O  O65  1  0.50019400  0.83242900  0.70238200  1
  O  O66  1  0.00172600  0.81359200  0.59559400  1
  O  O67  1  1.00000000  0.50000000  0.95668000  1
  O  O68  1  0.50000000  0.50000000  0.84289000  1
  O  O69  1  0.99950800  0.49998000  0.72830400  1
  O  O70  1  0.49605900  0.50032800  0.61522300  1
  O  O71  1  0.50000000  0.50000000  0.92952000  1
  O  O72  1  1.00000000  0.50000000  0.81573000  1
  O  O73  1  0.50101900  0.50543100  0.70254400  1
  O  O74  1  0.00308800  0.50706200  0.58272800  1
  O  O75  1  0.30966000  0.00000000  0.00000000  1
  O  O76  1  0.80966000  1.00000000  0.88621000  1
  O  O77  1  0.30966000  1.00000000  0.77241000  1
  O  O78  1  0.80547200  0.99291400  0.65840700  1
  O  O79  1  0.29434200  0.99189800  0.54535800  1
  O  O80  1  0.69034000  0.00000000  0.00000000  1
  O  O81  1  0.19034000  1.00000000  0.88621000  1
  O  O82  1  0.69034000  1.00000000  0.77241000  1
  O  O83  1  0.19483600  0.99321000  0.65862300  1
  O  O84  1  0.70871000  0.99149000  0.54590300  1
