# generated using pymatgen
data_MgTiMnVZnCrFeCoCuNiSb20ClO54
_symmetry_space_group_name_H-M   'P 1'
_cell_length_a   6.76181600
_cell_length_b   9.58923400
_cell_length_c   29.69825500
_cell_angle_alpha   89.81836200
_cell_angle_beta   89.46000200
_cell_angle_gamma   89.97775500
_symmetry_Int_Tables_number   1
_chemical_formula_structural   MgTiMnVZnCrFeCoCuNiSb20ClO54
_chemical_formula_sum
'Mg1 Ti1 Mn1 V1 Zn1 Cr1 Fe1 Co1 Cu1 Ni1 Sb20 Cl1 O54'
_cell_volume   1925.55841610
_cell_formula_units_Z   1
loop_
 _symmetry_equiv_pos_site_id
 _symmetry_equiv_pos_as_xyz
  1  'x, y, z'
loop_
 _atom_site_type_symbol
 _atom_site_label
 _atom_site_symmetry_multiplicity
 _atom_site_fract_x
 _atom_site_fract_y
 _atom_site_fract_z
 _atom_site_occupancy
  Mg  Mg0  1  0.02004200  0.48574300  0.66212100  1
  Ti  Ti1  1  0.91081100  0.65420300  0.58338600  1
  Mn  Mn2  1  0.47893200  0.50352400  0.55140300  1
  V  V3  1  1.00000000  0.33232000  0.77241000  1
  Zn  Zn4  1  0.48638700  0.65817200  0.65684000  1
  Cr  Cr5  1  0.00337300  0.17076700  0.66291200  1
  Fe  Fe6  1  0.50000000  0.66768000  0.88621000  1
  Co  Co7  1  0.48422300  0.82817300  0.55635400  1
  Cu  Cu8  1  0.50000000  0.50000000  0.77241000  1
  Ni  Ni9  1  0.99695900  0.31931500  0.55947300  1
  Sb  Sb10  1  0.00000000  0.00000000  0.00000000  1
  Sb  Sb11  1  0.50000000  0.00000000  0.88621000  1
  Sb  Sb12  1  1.00000000  0.00000000  0.77241000  1
  Sb  Sb13  1  0.50963200  0.99143800  0.66090200  1
  Sb  Sb14  1  0.00104200  0.02282000  0.54759300  1
  Sb  Sb15  1  0.50000000  0.50000000  0.00000000  1
  Sb  Sb16  1  1.00000000  0.50000000  0.88621000  1
  Sb  Sb17  1  0.00000000  0.33232000  0.00000000  1
  Sb  Sb18  1  0.50000000  0.33232000  0.88621000  1
  Sb  Sb19  1  0.50564100  0.34120200  0.66382800  1
  Sb  Sb20  1  0.50000000  0.83232000  0.00000000  1
  Sb  Sb21  1  1.00000000  0.83232000  0.88621000  1
  Sb  Sb22  1  0.50000000  0.83232000  0.77241000  1
  Sb  Sb23  1  0.01833500  0.83976600  0.65774500  1
  Sb  Sb24  1  0.50000000  0.16768000  0.00000000  1
  Sb  Sb25  1  1.00000000  0.16768000  0.88621000  1
  Sb  Sb26  1  0.50000000  0.16768000  0.77241000  1
  Sb  Sb27  1  0.50680800  0.17054300  0.55291600  1
  Sb  Sb28  1  0.00000000  0.66768000  0.00000000  1
  Sb  Sb29  1  1.00000000  0.66768000  0.77241000  1
  Cl  Cl30  1  0.49545300  0.51602200  0.47790200  1
  O  O31  1  1.00000000  0.17164000  0.95506000  1
  O  O32  1  0.50000000  0.17164000  0.84126000  1
  O  O33  1  0.99980400  0.15525700  0.72934800  1
  O  O34  1  0.50740200  0.16404400  0.62071200  1
  O  O35  1  0.50000000  0.17164000  0.93115000  1
  O  O36  1  1.00000000  0.17164000  0.81736000  1
  O  O37  1  0.50689900  0.15563200  0.70502900  1
  O  O38  1  0.01116100  0.15886700  0.59808200  1
  O  O39  1  0.30253000  0.67164000  1.00000000  1
  O  O40  1  0.80253000  0.67164000  0.88621000  1
  O  O41  1  0.30253000  0.67164000  0.77241000  1
  O  O42  1  0.81864700  0.68550400  0.64440700  1
  O  O43  1  0.32012100  0.65460800  0.55585700  1
  O  O44  1  0.69747000  0.67164000  1.00000000  1
  O  O45  1  0.19747000  0.67164000  0.88621000  1
  O  O46  1  0.69747000  0.67164000  0.77241000  1
  O  O47  1  0.18873300  0.67794300  0.65938700  1
  O  O48  1  0.68573800  0.64825900  0.55310300  1
  O  O49  1  0.30253000  0.32836000  1.00000000  1
  O  O50  1  0.80253000  0.32836000  0.88621000  1
  O  O51  1  0.30253000  0.32836000  0.77241000  1
  O  O52  1  0.80781600  0.31528000  0.66391900  1
  O  O53  1  0.30832400  0.32982600  0.54986000  1
  O  O54  1  0.69747000  0.32836000  1.00000000  1
  O  O55  1  0.19747000  0.32836000  0.88621000  1
  O  O56  1  0.69747000  0.32836000  0.77241000  1
  O  O57  1  0.20636500  0.31603800  0.66446000  1
  O  O58  1  0.70866400  0.31937100  0.54596500  1
  O  O59  1  1.00000000  0.82836000  0.95506000  1
  O  O60  1  0.50000000  0.82836000  0.84126000  1
  O  O61  1  0.99978400  0.84468700  0.72933600  1
  O  O62  1  0.49924400  0.83868200  0.61862900  1
  O  O63  1  0.50000000  0.82836000  0.93115000  1
  O  O64  1  1.00000000  0.82836000  0.81736000  1
  O  O65  1  0.50928200  0.83890900  0.70621900  1
  O  O66  1  0.01729200  0.84997200  0.58779500  1
  O  O67  1  1.00000000  0.50000000  0.95668000  1
  O  O68  1  0.50000000  0.50000000  0.84289000  1
  O  O69  1  0.99950800  0.49998000  0.72830400  1
  O  O70  1  0.50672900  0.48325300  0.61535800  1
  O  O71  1  0.50000000  0.50000000  0.92952000  1
  O  O72  1  1.00000000  0.50000000  0.81573000  1
  O  O73  1  0.50637000  0.50050700  0.70464400  1
  O  O74  1  0.99324100  0.48332800  0.59281700  1
  O  O75  1  0.30966000  0.00000000  1.00000000  1
  O  O76  1  0.80966000  0.00000000  0.88621000  1
  O  O77  1  0.30966000  0.00000000  0.77241000  1
  O  O78  1  0.81725500  0.00015400  0.66192000  1
  O  O79  1  0.31863700  0.00727800  0.54619500  1
  O  O80  1  0.69034000  0.00000000  1.00000000  1
  O  O81  1  0.19034000  0.00000000  0.88621000  1
  O  O82  1  0.69034000  0.00000000  0.77241000  1
  O  O83  1  0.20173700  0.00546800  0.66339200  1
  O  O84  1  0.68443500  0.99892900  0.54965600  1
