# generated using pymatgen
data_MgTiMnVZnCrFeCoCuNiSb20ClO54
_symmetry_space_group_name_H-M   'P 1'
_cell_length_a   6.69532000
_cell_length_b   9.60904600
_cell_length_c   29.67469100
_cell_angle_alpha   89.98365700
_cell_angle_beta   89.99854900
_cell_angle_gamma   89.99237100
_symmetry_Int_Tables_number   1
_chemical_formula_structural   MgTiMnVZnCrFeCoCuNiSb20ClO54
_chemical_formula_sum
'Mg1 Ti1 Mn1 V1 Zn1 Cr1 Fe1 Co1 Cu1 Ni1 Sb20 Cl1 O54'
_cell_volume   1909.14007872
_cell_formula_units_Z   1
loop_
 _symmetry_equiv_pos_site_id
 _symmetry_equiv_pos_as_xyz
  1  'x, y, z'
loop_
 _atom_site_type_symbol
 _atom_site_label
 _atom_site_symmetry_multiplicity
 _atom_site_fract_x
 _atom_site_fract_y
 _atom_site_fract_z
 _atom_site_occupancy
  Mg  Mg0  1  0.00000000  0.33232000  0.00000000  1
  Ti  Ti1  1  0.50000000  0.16768000  0.00000000  1
  Mn  Mn2  1  0.50288100  0.49274200  0.55591500  1
  V  V3  1  1.00000000  0.33232000  0.77241000  1
  Zn  Zn4  1  0.50021400  0.67155000  0.65927600  1
  Cr  Cr5  1  1.00000000  0.66768000  0.77241000  1
  Fe  Fe6  1  0.50001300  0.98546400  0.66067000  1
  Co  Co7  1  0.00235100  0.01001800  0.56028600  1
  Cu  Cu8  1  0.50000000  0.83232000  0.00000000  1
  Ni  Ni9  1  0.00455500  0.65783300  0.56248200  1
  Sb  Sb10  1  0.00000000  0.00000000  0.00000000  1
  Sb  Sb11  1  0.50000000  1.00000000  0.88621000  1
  Sb  Sb12  1  1.00000000  0.00000000  0.77241000  1
  Sb  Sb13  1  0.50000000  0.50000000  0.00000000  1
  Sb  Sb14  1  1.00000000  0.50000000  0.88621000  1
  Sb  Sb15  1  0.50000000  0.50000000  0.77241000  1
  Sb  Sb16  1  0.00106800  0.50734500  0.66295000  1
  Sb  Sb17  1  0.50000000  0.33232000  0.88621000  1
  Sb  Sb18  1  0.50018100  0.33306200  0.66052400  1
  Sb  Sb19  1  0.99989000  0.34227900  0.54827700  1
  Sb  Sb20  1  1.00000000  0.83232000  0.88621000  1
  Sb  Sb21  1  0.50000000  0.83232000  0.77241000  1
  Sb  Sb22  1  0.99994900  0.83337600  0.65905700  1
  Sb  Sb23  1  0.50434200  0.80213800  0.54983000  1
  Sb  Sb24  1  1.00000000  0.16768000  0.88621000  1
  Sb  Sb25  1  0.50000000  0.16768000  0.77241000  1
  Sb  Sb26  1  0.00049300  0.16284200  0.66103400  1
  Sb  Sb27  1  0.50102300  0.16591200  0.55228600  1
  Sb  Sb28  1  0.00000000  0.66768000  0.00000000  1
  Sb  Sb29  1  0.50000000  0.66768000  0.88621000  1
  Cl  Cl30  1  0.51170700  0.48366800  0.48088100  1
  O  O31  1  1.00000000  0.17164000  0.95506000  1
  O  O32  1  0.50000000  0.17164000  0.84126000  1
  O  O33  1  0.99980400  0.15525700  0.72934800  1
  O  O34  1  0.49690900  0.16154500  0.62044300  1
  O  O35  1  0.50000000  0.17164000  0.93115000  1
  O  O36  1  1.00000000  0.17164000  0.81736000  1
  O  O37  1  0.50097900  0.16893400  0.70468000  1
  O  O38  1  0.00357400  0.18266000  0.59462300  1
  O  O39  1  0.30253000  0.67164000  0.00000000  1
  O  O40  1  0.80253000  0.67164000  0.88621000  1
  O  O41  1  0.30253000  0.67164000  0.77241000  1
  O  O42  1  0.80855500  0.66909400  0.66200700  1
  O  O43  1  0.30393800  0.63952700  0.55580800  1
  O  O44  1  0.69747000  0.67164000  0.00000000  1
  O  O45  1  0.19747000  0.67164000  0.88621000  1
  O  O46  1  0.69747000  0.67164000  0.77241000  1
  O  O47  1  0.19226400  0.66983200  0.66272700  1
  O  O48  1  0.70392700  0.63897500  0.55660300  1
  O  O49  1  0.30253000  0.32836000  0.00000000  1
  O  O50  1  0.80253000  0.32836000  0.88621000  1
  O  O51  1  0.30253000  0.32836000  0.77241000  1
  O  O52  1  0.80844200  0.33199500  0.66465000  1
  O  O53  1  0.31732200  0.34197500  0.55746700  1
  O  O54  1  0.69747000  0.32836000  0.00000000  1
  O  O55  1  0.19747000  0.32836000  0.88621000  1
  O  O56  1  0.69747000  0.32836000  0.77241000  1
  O  O57  1  0.19237900  0.33147000  0.66548800  1
  O  O58  1  0.68577400  0.34151500  0.56045200  1
  O  O59  1  1.00000000  0.82836000  0.95506000  1
  O  O60  1  0.50000000  0.82836000  0.84126000  1
  O  O61  1  0.99978400  0.84468700  0.72933600  1
  O  O62  1  0.50081400  0.84129400  0.61614200  1
  O  O63  1  0.50000000  0.82836000  0.93115000  1
  O  O64  1  1.00000000  0.82836000  0.81736000  1
  O  O65  1  0.50161800  0.84048800  0.70609200  1
  O  O66  1  0.00207200  0.83886000  0.59177600  1
  O  O67  1  1.00000000  0.50000000  0.95668000  1
  O  O68  1  0.50000000  0.50000000  0.84289000  1
  O  O69  1  0.99950800  0.49998000  0.72830400  1
  O  O70  1  0.49530900  0.49451000  0.62031600  1
  O  O71  1  0.50000000  0.50000000  0.92952000  1
  O  O72  1  1.00000000  0.50000000  0.81573000  1
  O  O73  1  0.50024100  0.49065400  0.70525300  1
  O  O74  1  0.00663300  0.48816100  0.59682600  1
  O  O75  1  0.30966000  1.00000000  0.00000000  1
  O  O76  1  0.80966000  1.00000000  0.88621000  1
  O  O77  1  0.30966000  1.00000000  0.77241000  1
  O  O78  1  0.80660500  0.00118400  0.66085900  1
  O  O79  1  0.26869200  0.02568300  0.54395900  1
  O  O80  1  0.69034000  1.00000000  0.00000000  1
  O  O81  1  0.19034000  1.00000000  0.88621000  1
  O  O82  1  0.69034000  1.00000000  0.77241000  1
  O  O83  1  0.19335300  0.00086200  0.66110500  1
  O  O84  1  0.73609000  0.02671200  0.54427500  1
