# generated using pymatgen
data_MgTiMnVZnCrFeCoCuNiSb20ClO54
_symmetry_space_group_name_H-M   'P 1'
_cell_length_a   6.65855100
_cell_length_b   9.53363800
_cell_length_c   29.28587400
_cell_angle_alpha   89.86383400
_cell_angle_beta   89.98301000
_cell_angle_gamma   89.97945800
_symmetry_Int_Tables_number   1
_chemical_formula_structural   MgTiMnVZnCrFeCoCuNiSb20ClO54
_chemical_formula_sum
'Mg1 Ti1 Mn1 V1 Zn1 Cr1 Fe1 Co1 Cu1 Ni1 Sb20 Cl1 O54'
_cell_volume   1859.06812252
_cell_formula_units_Z   1
loop_
 _symmetry_equiv_pos_site_id
 _symmetry_equiv_pos_as_xyz
  1  'x, y, z'
loop_
 _atom_site_type_symbol
 _atom_site_label
 _atom_site_symmetry_multiplicity
 _atom_site_fract_x
 _atom_site_fract_y
 _atom_site_fract_z
 _atom_site_occupancy
  Mg  Mg0  1  0.50000000  0.16768000  1.00000000  1
  Ti  Ti1  1  0.50000000  0.50000000  0.22759000  1
  Mn  Mn2  1  0.49959300  0.50752700  0.44993800  1
  V  V3  1  0.50000000  0.00000000  0.11379000  1
  Zn  Zn4  1  0.00000000  0.00000000  0.00000000  1
  Cr  Cr5  1  0.50000000  0.33232000  0.11379000  1
  Fe  Fe6  1  0.49882400  0.82919200  0.45080500  1
  Co  Co7  1  0.50000000  0.83232000  0.22759000  1
  Cu  Cu8  1  0.99817400  0.98551600  0.44954700  1
  Ni  Ni9  1  0.99930000  0.49938400  0.34024200  1
  Sb  Sb10  1  0.00000000  0.00000000  0.22759000  1
  Sb  Sb11  1  0.50109300  0.99671900  0.34049600  1
  Sb  Sb12  1  0.50000000  0.50000000  1.00000000  1
  Sb  Sb13  1  1.00000000  0.50000000  0.11379000  1
  Sb  Sb14  1  0.00000000  0.33232000  0.00000000  1
  Sb  Sb15  1  0.00000000  0.33232000  0.22759000  1
  Sb  Sb16  1  0.49938400  0.33997000  0.35168500  1
  Sb  Sb17  1  0.00189400  0.34399200  0.45453700  1
  Sb  Sb18  1  0.50000000  0.83232000  1.00000000  1
  Sb  Sb19  1  0.00000000  0.83232000  0.11379000  1
  Sb  Sb20  1  0.00162300  0.82222600  0.34220600  1
  Sb  Sb21  1  0.00000000  0.16768000  0.11379000  1
  Sb  Sb22  1  0.50000000  0.16768000  0.22759000  1
  Sb  Sb23  1  0.00027500  0.17723600  0.34541700  1
  Sb  Sb24  1  0.49816700  0.15581500  0.46095400  1
  Sb  Sb25  1  1.00000000  0.66768000  0.00000000  1
  Sb  Sb26  1  0.50000000  0.66768000  0.11379000  1
  Sb  Sb27  1  0.00000000  0.66768000  0.22759000  1
  Sb  Sb28  1  0.50158400  0.67034300  0.33557900  1
  Sb  Sb29  1  0.99914400  0.67116000  0.45751900  1
  Cl  Cl30  1  0.48628200  0.47251100  0.52417600  1
  O  O31  1  0.00000000  0.17164000  0.04494000  1
  O  O32  1  0.50000000  0.17164000  0.15874000  1
  O  O33  1  0.00019600  0.15525700  0.27065200  1
  O  O34  1  0.50234500  0.14234900  0.38958700  1
  O  O35  1  0.50000000  0.17164000  0.06885000  1
  O  O36  1  0.00000000  0.17164000  0.18264000  1
  O  O37  1  0.49986900  0.16395500  0.29798100  1
  O  O38  1  0.00368200  0.17213700  0.41371400  1
  O  O39  1  0.69747000  0.67164000  0.00000000  1
  O  O40  1  0.19747000  0.67164000  0.11379000  1
  O  O41  1  0.69747000  0.67164000  0.22759000  1
  O  O42  1  0.19917400  0.66562200  0.33515400  1
  O  O43  1  0.67685900  0.67005600  0.45434700  1
  O  O44  1  0.30253000  0.67164000  1.00000000  1
  O  O45  1  0.80253000  0.67164000  0.11379000  1
  O  O46  1  0.30253000  0.67164000  0.22759000  1
  O  O47  1  0.80386200  0.66666667  0.33420400  1
  O  O48  1  0.32284300  0.66914300  0.45211500  1
  O  O49  1  0.69747000  0.32836000  0.00000000  1
  O  O50  1  0.19747000  0.32836000  0.11379000  1
  O  O51  1  0.69747000  0.32836000  0.22759000  1
  O  O52  1  0.19134000  0.33751400  0.33907200  1
  O  O53  1  0.68395900  0.34886200  0.44152300  1
  O  O54  1  0.30253000  0.32836000  1.00000000  1
  O  O55  1  0.80253000  0.32836000  0.11379000  1
  O  O56  1  0.30253000  0.32836000  0.22759000  1
  O  O57  1  0.80747300  0.33648000  0.33938200  1
  O  O58  1  0.31846400  0.35268800  0.43832500  1
  O  O59  1  1.00000000  0.82836000  0.04494000  1
  O  O60  1  0.50000000  0.82836000  0.15874000  1
  O  O61  1  0.00021600  0.84468700  0.27066400  1
  O  O62  1  0.50159000  0.82948700  0.38150000  1
  O  O63  1  0.50000000  0.82836000  0.06885000  1
  O  O64  1  0.00000000  0.82836000  0.18264000  1
  O  O65  1  0.50004300  0.83954100  0.29401000  1
  O  O66  1  0.99689500  0.81781700  0.40886200  1
  O  O67  1  1.00000000  0.50000000  0.04332000  1
  O  O68  1  0.50000000  0.50000000  0.15711000  1
  O  O69  1  0.00049200  0.49998000  0.27169600  1
  O  O70  1  0.50895700  0.52932900  0.38491300  1
  O  O71  1  0.50000000  0.50000000  0.07048000  1
  O  O72  1  1.00000000  0.50000000  0.18427000  1
  O  O73  1  0.50076300  0.50186800  0.29431600  1
  O  O74  1  0.99563300  0.51097700  0.41133300  1
  O  O75  1  0.69034000  1.00000000  0.00000000  1
  O  O76  1  0.19034000  0.00000000  0.11379000  1
  O  O77  1  0.69034000  1.00000000  0.22759000  1
  O  O78  1  0.19209800  0.00000500  0.34118500  1
  O  O79  1  0.69461100  0.96983100  0.45757100  1
  O  O80  1  0.30966000  0.00000000  1.00000000  1
  O  O81  1  0.80966000  1.00000000  0.11379000  1
  O  O82  1  0.30966000  0.00000000  0.22759000  1
  O  O83  1  0.80985000  0.99979000  0.34112800  1
  O  O84  1  0.30101600  0.96656000  0.45697200  1
