# generated using pymatgen
data_MgTiMnVZnCrFeCoCuNiSb20ClO54
_symmetry_space_group_name_H-M   'P 1'
_cell_length_a   6.70866000
_cell_length_b   9.46716200
_cell_length_c   29.08603000
_cell_angle_alpha   90.03033100
_cell_angle_beta   89.98633300
_cell_angle_gamma   89.99463500
_symmetry_Int_Tables_number   1
_chemical_formula_structural   MgTiMnVZnCrFeCoCuNiSb20ClO54
_chemical_formula_sum
'Mg1 Ti1 Mn1 V1 Zn1 Cr1 Fe1 Co1 Cu1 Ni1 Sb20 Cl1 O54'
_cell_volume   1847.31077501
_cell_formula_units_Z   1
loop_
 _symmetry_equiv_pos_site_id
 _symmetry_equiv_pos_as_xyz
  1  'x, y, z'
loop_
 _atom_site_type_symbol
 _atom_site_label
 _atom_site_symmetry_multiplicity
 _atom_site_fract_x
 _atom_site_fract_y
 _atom_site_fract_z
 _atom_site_occupancy
  Mg  Mg0  1  0.49998200  0.33508800  0.34586200  1
  Ti  Ti1  1  0.50000000  0.16768000  1.00000000  1
  Mn  Mn2  1  0.49727900  0.50716800  0.45045700  1
  V  V3  1  0.50000000  0.00000000  0.11379000  1
  Zn  Zn4  1  0.50000000  0.83232000  1.00000000  1
  Cr  Cr5  1  0.00000000  0.00000000  0.00000000  1
  Fe  Fe6  1  1.00000000  1.00000000  0.22759000  1
  Co  Co7  1  0.99975400  0.49476000  0.34158500  1
  Cu  Cu8  1  0.50000000  0.33232000  0.11379000  1
  Ni  Ni9  1  0.49782900  0.82222500  0.45005900  1
  Sb  Sb10  1  0.50051900  0.00852700  0.34364000  1
  Sb  Sb11  1  0.99836500  0.99617900  0.46030100  1
  Sb  Sb12  1  0.50000000  0.50000000  1.00000000  1
  Sb  Sb13  1  0.00000000  0.50000000  0.11379000  1
  Sb  Sb14  1  0.50000000  0.50000000  0.22759000  1
  Sb  Sb15  1  1.00000000  0.33232000  0.00000000  1
  Sb  Sb16  1  1.00000000  0.33232000  0.22759000  1
  Sb  Sb17  1  0.99935400  0.34231000  0.45627600  1
  Sb  Sb18  1  1.00000000  0.83232000  0.11379000  1
  Sb  Sb19  1  0.50000000  0.83232000  0.22759000  1
  Sb  Sb20  1  0.00065000  0.82957200  0.34019300  1
  Sb  Sb21  1  1.00000000  0.16768000  0.11379000  1
  Sb  Sb22  1  0.50000000  0.16768000  0.22759000  1
  Sb  Sb23  1  0.99999400  0.18336800  0.34061000  1
  Sb  Sb24  1  0.49861100  0.16751000  0.46010800  1
  Sb  Sb25  1  1.00000000  0.66768000  0.00000000  1
  Sb  Sb26  1  0.50000000  0.66768000  0.11379000  1
  Sb  Sb27  1  1.00000000  0.66768000  0.22759000  1
  Sb  Sb28  1  0.50052200  0.66267000  0.34334300  1
  Sb  Sb29  1  0.99741500  0.66631700  0.45671100  1
  Cl  Cl30  1  0.48772100  0.48726300  0.52680800  1
  O  O31  1  1.00000000  0.17164000  0.04494000  1
  O  O32  1  0.50000000  0.17164000  0.15874000  1
  O  O33  1  0.00019600  0.15525700  0.27065200  1
  O  O34  1  0.50283300  0.16020800  0.38900500  1
  O  O35  1  0.50000000  0.17164000  0.06885000  1
  O  O36  1  0.00000000  0.17164000  0.18264000  1
  O  O37  1  0.49968800  0.16499100  0.29666900  1
  O  O38  1  0.99811200  0.16533900  0.41269300  1
  O  O39  1  0.69747000  0.67164000  1.00000000  1
  O  O40  1  0.19747000  0.67164000  0.11379000  1
  O  O41  1  0.69747000  0.67164000  0.22759000  1
  O  O42  1  0.19578700  0.67046100  0.33868900  1
  O  O43  1  0.67883100  0.66475800  0.45189700  1
  O  O44  1  0.30253000  0.67164000  1.00000000  1
  O  O45  1  0.80253000  0.67164000  0.11379000  1
  O  O46  1  0.30253000  0.67164000  0.22759000  1
  O  O47  1  0.80461000  0.67115000  0.33822600  1
  O  O48  1  0.31590600  0.66450900  0.45026800  1
  O  O49  1  0.69747000  0.32836000  1.00000000  1
  O  O50  1  0.19747000  0.32836000  0.11379000  1
  O  O51  1  0.69747000  0.32836000  0.22759000  1
  O  O52  1  0.19597500  0.33342400  0.34060000  1
  O  O53  1  0.68833800  0.35361900  0.44669000  1
  O  O54  1  0.30253000  0.32836000  1.00000000  1
  O  O55  1  0.80253000  0.32836000  0.11379000  1
  O  O56  1  0.30253000  0.32836000  0.22759000  1
  O  O57  1  0.80410700  0.33349100  0.34050100  1
  O  O58  1  0.30899200  0.35260300  0.44468800  1
  O  O59  1  1.00000000  0.82836000  0.04494000  1
  O  O60  1  0.50000000  0.82836000  0.15874000  1
  O  O61  1  0.00021600  0.84468700  0.27066400  1
  O  O62  1  0.50078900  0.83597300  0.38335100  1
  O  O63  1  0.50000000  0.82836000  0.06885000  1
  O  O64  1  0.00000000  0.82836000  0.18264000  1
  O  O65  1  0.49911300  0.83436600  0.29673000  1
  O  O66  1  0.99762100  0.83239600  0.41035700  1
  O  O67  1  1.00000000  0.50000000  0.04332000  1
  O  O68  1  0.50000000  0.50000000  0.15711000  1
  O  O69  1  0.00049200  0.49998000  0.27169600  1
  O  O70  1  0.50384300  0.50726000  0.38533900  1
  O  O71  1  0.50000000  0.50000000  0.07048000  1
  O  O72  1  1.00000000  0.50000000  0.18427000  1
  O  O73  1  0.49991700  0.50671200  0.29608200  1
  O  O74  1  0.99679500  0.50646400  0.41036700  1
  O  O75  1  0.69034000  0.00000000  1.00000000  1
  O  O76  1  0.19034000  0.00000000  0.11379000  1
  O  O77  1  0.69034000  0.00000000  0.22759000  1
  O  O78  1  0.19090100  0.00298000  0.34176000  1
  O  O79  1  0.69058100  0.97312000  0.45571500  1
  O  O80  1  0.30966000  0.00000000  1.00000000  1
  O  O81  1  0.80966000  0.00000000  0.11379000  1
  O  O82  1  0.30966000  0.00000000  0.22759000  1
  O  O83  1  0.80995600  0.00280200  0.34136700  1
  O  O84  1  0.30592400  0.97359700  0.45506100  1
