# generated using pymatgen
data_MgTiMnVZnCrFeCoCuNiSb20ClO54
_symmetry_space_group_name_H-M   'P 1'
_cell_length_a   6.67156800
_cell_length_b   9.68997600
_cell_length_c   29.70629900
_cell_angle_alpha   90.03954800
_cell_angle_beta   89.99307200
_cell_angle_gamma   89.99060100
_symmetry_Int_Tables_number   1
_chemical_formula_structural   MgTiMnVZnCrFeCoCuNiSb20ClO54
_chemical_formula_sum
'Mg1 Ti1 Mn1 V1 Zn1 Cr1 Fe1 Co1 Cu1 Ni1 Sb20 Cl1 O54'
_cell_volume   1920.43253010
_cell_formula_units_Z   1
loop_
 _symmetry_equiv_pos_site_id
 _symmetry_equiv_pos_as_xyz
  1  'x, y, z'
loop_
 _atom_site_type_symbol
 _atom_site_label
 _atom_site_symmetry_multiplicity
 _atom_site_fract_x
 _atom_site_fract_y
 _atom_site_fract_z
 _atom_site_occupancy
  Mg  Mg0  1  0.49942300  0.81390600  0.44572900  1
  Ti  Ti1  1  1.00000000  0.16768000  0.11379000  1
  Mn  Mn2  1  0.49970700  0.51296000  0.44529400  1
  V  V3  1  0.99978900  0.80953800  0.33602500  1
  Zn  Zn4  1  0.99976600  0.64421700  0.43665400  1
  Cr  Cr5  1  0.49947500  0.35208600  0.33673100  1
  Fe  Fe6  1  0.00000000  0.83232000  0.11379000  1
  Co  Co7  1  0.99453200  0.17582900  0.33509900  1
  Cu  Cu8  1  0.00034300  0.46236700  0.33518800  1
  Ni  Ni9  1  0.50000000  0.50000000  0.22759000  1
  Sb  Sb10  1  0.00000000  0.00000000  0.00000000  1
  Sb  Sb11  1  0.50000000  0.00000000  0.11379000  1
  Sb  Sb12  1  1.00000000  0.00000000  0.22759000  1
  Sb  Sb13  1  0.49894000  0.00652000  0.34365800  1
  Sb  Sb14  1  0.00072800  0.99598800  0.41751300  1
  Sb  Sb15  1  0.50000000  0.50000000  1.00000000  1
  Sb  Sb16  1  0.00000000  0.50000000  0.11379000  1
  Sb  Sb17  1  0.00000000  0.33232000  1.00000000  1
  Sb  Sb18  1  0.50000000  0.33232000  0.11379000  1
  Sb  Sb19  1  1.00000000  0.33232000  0.22759000  1
  Sb  Sb20  1  0.00015700  0.35019700  0.44706900  1
  Sb  Sb21  1  0.50000000  0.83232000  1.00000000  1
  Sb  Sb22  1  0.50000000  0.83232000  0.22759000  1
  Sb  Sb23  1  0.50000000  0.16768000  1.00000000  1
  Sb  Sb24  1  0.50000000  0.16768000  0.22759000  1
  Sb  Sb25  1  0.50015700  0.19196200  0.45136500  1
  Sb  Sb26  1  0.00000000  0.66768000  1.00000000  1
  Sb  Sb27  1  0.50000000  0.66768000  0.11379000  1
  Sb  Sb28  1  0.00000000  0.66768000  0.22759000  1
  Sb  Sb29  1  0.49990200  0.66720700  0.33664600  1
  Cl  Cl30  1  0.49903500  0.48133600  0.51901700  1
  O  O31  1  1.00000000  0.17164000  0.04494000  1
  O  O32  1  0.50000000  0.17164000  0.15874000  1
  O  O33  1  0.00019600  0.15525700  0.27065200  1
  O  O34  1  0.49913800  0.17254100  0.38241900  1
  O  O35  1  0.50000000  0.17164000  0.06885000  1
  O  O36  1  0.00000000  0.17164000  0.18264000  1
  O  O37  1  0.49909100  0.15525800  0.29499400  1
  O  O38  1  0.00147500  0.19204800  0.40037100  1
  O  O39  1  0.69747000  0.67164000  1.00000000  1
  O  O40  1  0.19747000  0.67164000  0.11379000  1
  O  O41  1  0.69747000  0.67164000  0.22759000  1
  O  O42  1  0.19378700  0.68890700  0.32986900  1
  O  O43  1  0.69644800  0.64973700  0.44717200  1
  O  O44  1  0.30253000  0.67164000  1.00000000  1
  O  O45  1  0.80253000  0.67164000  0.11379000  1
  O  O46  1  0.30253000  0.67164000  0.22759000  1
  O  O47  1  0.80545200  0.68882000  0.32966000  1
  O  O48  1  0.30289100  0.64955600  0.44709200  1
  O  O49  1  0.69747000  0.32836000  1.00000000  1
  O  O50  1  0.19747000  0.32836000  0.11379000  1
  O  O51  1  0.69747000  0.32836000  0.22759000  1
  O  O52  1  0.24229900  0.32322900  0.33250200  1
  O  O53  1  0.68436300  0.35529000  0.43855500  1
  O  O54  1  0.30253000  0.32836000  1.00000000  1
  O  O55  1  0.80253000  0.32836000  0.11379000  1
  O  O56  1  0.30253000  0.32836000  0.22759000  1
  O  O57  1  0.75878900  0.32216200  0.33256400  1
  O  O58  1  0.31599700  0.35539400  0.43846600  1
  O  O59  1  0.00000000  0.82836000  0.04494000  1
  O  O60  1  0.50000000  0.82836000  0.15874000  1
  O  O61  1  0.00021600  0.84468700  0.27066400  1
  O  O62  1  0.49962900  0.82812600  0.37928600  1
  O  O63  1  0.50000000  0.82836000  0.06885000  1
  O  O64  1  0.00000000  0.82836000  0.18264000  1
  O  O65  1  0.49937300  0.84327900  0.29466800  1
  O  O66  1  0.99762200  0.80387400  0.39682400  1
  O  O67  1  1.00000000  0.50000000  0.04332000  1
  O  O68  1  0.50000000  0.50000000  0.15711000  1
  O  O69  1  0.00049200  0.49998000  0.27169600  1
  O  O70  1  0.50033600  0.50431000  0.37728400  1
  O  O71  1  0.50000000  0.50000000  0.07048000  1
  O  O72  1  1.00000000  0.50000000  0.18427000  1
  O  O73  1  0.50054300  0.50424800  0.29428900  1
  O  O74  1  0.99978800  0.48277700  0.39779900  1
  O  O75  1  0.69034000  1.00000000  0.00000000  1
  O  O76  1  0.19034000  0.00000000  0.11379000  1
  O  O77  1  0.69034000  0.00000000  0.22759000  1
  O  O78  1  0.18412800  0.99190900  0.34589300  1
  O  O79  1  0.74274300  0.98886600  0.44764100  1
  O  O80  1  0.30966000  1.00000000  1.00000000  1
  O  O81  1  0.80966000  0.00000000  0.11379000  1
  O  O82  1  0.30966000  0.00000000  0.22759000  1
  O  O83  1  0.81305100  0.99278400  0.34580800  1
  O  O84  1  0.25773000  0.98725000  0.44763800  1
