# generated using pymatgen
data_MgTiMnVZnCrFeCoCuNiSb20ClO54
_symmetry_space_group_name_H-M   'P 1'
_cell_length_a   6.61909300
_cell_length_b   9.53806000
_cell_length_c   28.79783200
_cell_angle_alpha   89.97300300
_cell_angle_beta   89.96953200
_cell_angle_gamma   89.99664600
_symmetry_Int_Tables_number   1
_chemical_formula_structural   MgTiMnVZnCrFeCoCuNiSb20ClO54
_chemical_formula_sum
'Mg1 Ti1 Mn1 V1 Zn1 Cr1 Fe1 Co1 Cu1 Ni1 Sb20 Cl1 O54'
_cell_volume   1818.10188299
_cell_formula_units_Z   1
loop_
 _symmetry_equiv_pos_site_id
 _symmetry_equiv_pos_as_xyz
  1  'x, y, z'
loop_
 _atom_site_type_symbol
 _atom_site_label
 _atom_site_symmetry_multiplicity
 _atom_site_fract_x
 _atom_site_fract_y
 _atom_site_fract_z
 _atom_site_occupancy
  Mg  Mg0  1  1.00000000  0.50000000  0.11379000  1
  Ti  Ti1  1  0.00009100  0.83172800  0.34750600  1
  Mn  Mn2  1  0.50338300  0.51212900  0.46254100  1
  V  V3  1  1.00000000  0.16768000  0.11379000  1
  Zn  Zn4  1  0.50000000  0.16768000  1.00000000  1
  Cr  Cr5  1  0.50000000  0.50000000  1.00000000  1
  Fe  Fe6  1  0.50316200  0.82686700  0.45633900  1
  Co  Co7  1  0.50000000  1.00000000  0.11379000  1
  Cu  Cu8  1  0.50000000  0.83232000  1.00000000  1
  Ni  Ni9  1  1.00000000  0.83232000  0.11379000  1
  Sb  Sb10  1  0.00000000  0.00000000  0.00000000  1
  Sb  Sb11  1  1.00000000  1.00000000  0.22759000  1
  Sb  Sb12  1  0.49779600  0.99785300  0.35158200  1
  Sb  Sb13  1  0.00327300  0.98699600  0.46958300  1
  Sb  Sb14  1  0.50000000  0.50000000  0.22759000  1
  Sb  Sb15  1  0.00276400  0.50242800  0.35137200  1
  Sb  Sb16  1  0.00000000  0.66768000  0.00000000  1
  Sb  Sb17  1  0.50000000  0.66768000  0.11379000  1
  Sb  Sb18  1  1.00000000  0.66768000  0.22759000  1
  Sb  Sb19  1  0.49930100  0.66563200  0.34457500  1
  Sb  Sb20  1  0.00176800  0.67758200  0.47141100  1
  Sb  Sb21  1  0.50000000  0.16768000  0.22759000  1
  Sb  Sb22  1  0.99221600  0.15595500  0.35226700  1
  Sb  Sb23  1  0.50464000  0.17702400  0.47023800  1
  Sb  Sb24  1  0.50000000  0.83232000  0.22759000  1
  Sb  Sb25  1  0.00000000  0.33232000  0.00000000  1
  Sb  Sb26  1  0.50000000  0.33232000  0.11379000  1
  Sb  Sb27  1  1.00000000  0.33232000  0.22759000  1
  Sb  Sb28  1  0.49803500  0.33467700  0.34840300  1
  Sb  Sb29  1  0.00202900  0.34979400  0.47989700  1
  Cl  Cl30  1  0.51671400  0.50627400  0.53949900  1
  O  O31  1  1.00000000  0.82836000  0.04494000  1
  O  O32  1  0.50000000  0.82836000  0.15874000  1
  O  O33  1  0.99980400  0.84474300  0.27065200  1
  O  O34  1  0.49588300  0.81467300  0.38977800  1
  O  O35  1  0.50000000  0.82836000  0.06885000  1
  O  O36  1  1.00000000  0.82836000  0.18264000  1
  O  O37  1  0.49998000  0.82767800  0.29730800  1
  O  O38  1  0.00499800  0.82567100  0.41714600  1
  O  O39  1  0.30253000  0.32836000  1.00000000  1
  O  O40  1  0.80253000  0.32836000  0.11379000  1
  O  O41  1  0.30253000  0.32836000  0.22759000  1
  O  O42  1  0.78987900  0.33509000  0.33762300  1
  O  O43  1  0.31263500  0.36126100  0.46077700  1
  O  O44  1  0.69747000  0.32836000  1.00000000  1
  O  O45  1  0.19747000  0.32836000  0.11379000  1
  O  O46  1  0.69747000  0.32836000  0.22759000  1
  O  O47  1  0.20642700  0.32320100  0.33726500  1
  O  O48  1  0.69356700  0.36198800  0.45840200  1
  O  O49  1  0.30253000  0.67164000  1.00000000  1
  O  O50  1  0.80253000  0.67164000  0.11379000  1
  O  O51  1  0.30253000  0.67164000  0.22759000  1
  O  O52  1  0.80074300  0.67513100  0.33988300  1
  O  O53  1  0.32226400  0.67180400  0.46270400  1
  O  O54  1  0.69747000  0.67164000  1.00000000  1
  O  O55  1  0.19747000  0.67164000  0.11379000  1
  O  O56  1  0.69747000  0.67164000  0.22759000  1
  O  O57  1  0.19902000  0.67957700  0.33800100  1
  O  O58  1  0.68369800  0.67137100  0.45993600  1
  O  O59  1  1.00000000  0.17164000  0.04494000  1
  O  O60  1  0.50000000  0.17164000  0.15874000  1
  O  O61  1  0.99978400  0.15531300  0.27066400  1
  O  O62  1  0.50433900  0.19032300  0.39818600  1
  O  O63  1  0.50000000  0.17164000  0.06885000  1
  O  O64  1  1.00000000  0.17164000  0.18264000  1
  O  O65  1  0.50655000  0.17514200  0.29752900  1
  O  O66  1  0.00533000  0.17699500  0.43712900  1
  O  O67  1  1.00000000  0.50000000  0.04332000  1
  O  O68  1  0.50000000  0.50000000  0.15711000  1
  O  O69  1  0.99950800  0.50002000  0.27169600  1
  O  O70  1  0.49258000  0.50675200  0.39113000  1
  O  O71  1  0.50000000  0.50000000  0.07048000  1
  O  O72  1  1.00000000  0.50000000  0.18427000  1
  O  O73  1  0.49471600  0.49996600  0.30247000  1
  O  O74  1  0.00419500  0.50649300  0.43126800  1
  O  O75  1  0.30966000  1.00000000  1.00000000  1
  O  O76  1  0.80966000  1.00000000  0.11379000  1
  O  O77  1  0.30966000  1.00000000  0.22759000  1
  O  O78  1  0.80959900  0.97237000  0.34181000  1
  O  O79  1  0.31699000  0.98256700  0.45543200  1
  O  O80  1  0.69034000  1.00000000  1.00000000  1
  O  O81  1  0.19034000  1.00000000  0.11379000  1
  O  O82  1  0.69034000  1.00000000  0.22759000  1
  O  O83  1  0.18262700  0.97875100  0.34223800  1
  O  O84  1  0.69063700  0.98186800  0.45406900  1
