# generated using pymatgen
data_MgTiMnVZnCrFeCoCuNiSb20ClO54
_symmetry_space_group_name_H-M   'P 1'
_cell_length_a   6.64796100
_cell_length_b   9.59961200
_cell_length_c   29.23375900
_cell_angle_alpha   90.19791500
_cell_angle_beta   89.92732100
_cell_angle_gamma   89.98887900
_symmetry_Int_Tables_number   1
_chemical_formula_structural   MgTiMnVZnCrFeCoCuNiSb20ClO54
_chemical_formula_sum
'Mg1 Ti1 Mn1 V1 Zn1 Cr1 Fe1 Co1 Cu1 Ni1 Sb20 Cl1 O54'
_cell_volume   1865.62286741
_cell_formula_units_Z   1
loop_
 _symmetry_equiv_pos_site_id
 _symmetry_equiv_pos_as_xyz
  1  'x, y, z'
loop_
 _atom_site_type_symbol
 _atom_site_label
 _atom_site_symmetry_multiplicity
 _atom_site_fract_x
 _atom_site_fract_y
 _atom_site_fract_z
 _atom_site_occupancy
  Mg  Mg0  1  0.00045500  0.16298600  0.65783800  1
  Ti  Ti1  1  0.50188900  0.82415500  0.55103300  1
  Mn  Mn2  1  0.49988500  0.50252400  0.54523100  1
  V  V3  1  0.00000000  0.83232000  0.88621000  1
  Zn  Zn4  1  0.50000000  0.83232000  0.00000000  1
  Cr  Cr5  1  0.00000000  0.00000000  0.77241000  1
  Fe  Fe6  1  0.00000000  0.33232000  0.00000000  1
  Co  Co7  1  0.00000000  0.66768000  0.00000000  1
  Cu  Cu8  1  0.50000000  0.16768000  0.77241000  1
  Ni  Ni9  1  0.99864600  0.33200700  0.55715100  1
  Sb  Sb10  1  0.00000000  0.00000000  0.00000000  1
  Sb  Sb11  1  0.50000000  0.00000000  0.88621000  1
  Sb  Sb12  1  0.50012700  0.00523800  0.65996300  1
  Sb  Sb13  1  0.00019600  0.00532000  0.53752500  1
  Sb  Sb14  1  0.50000000  0.50000000  0.00000000  1
  Sb  Sb15  1  0.00000000  0.50000000  0.88621000  1
  Sb  Sb16  1  0.50000000  0.50000000  0.77241000  1
  Sb  Sb17  1  0.99968200  0.48996400  0.65409000  1
  Sb  Sb18  1  0.50000000  0.66768000  0.88621000  1
  Sb  Sb19  1  0.00000000  0.66768000  0.77241000  1
  Sb  Sb20  1  0.49985900  0.66373500  0.65574300  1
  Sb  Sb21  1  0.00178300  0.66361300  0.53919900  1
  Sb  Sb22  1  0.50000000  0.16768000  0.00000000  1
  Sb  Sb23  1  1.00000000  0.16768000  0.88621000  1
  Sb  Sb24  1  0.49680300  0.19343500  0.53769200  1
  Sb  Sb25  1  0.50000000  0.83232000  0.77241000  1
  Sb  Sb26  1  0.99956000  0.84181200  0.65746100  1
  Sb  Sb27  1  0.50000000  0.33232000  0.88621000  1
  Sb  Sb28  1  0.00000000  0.33232000  0.77241000  1
  Sb  Sb29  1  0.50012500  0.32827500  0.65418800  1
  Cl  Cl30  1  0.49324400  0.49446400  0.46989500  1
  O  O31  1  0.00000000  0.82836000  0.95506000  1
  O  O32  1  0.50000000  0.82836000  0.84126000  1
  O  O33  1  0.00019600  0.84474300  0.72934800  1
  O  O34  1  0.50215300  0.83675300  0.61636200  1
  O  O35  1  0.50000000  0.82836000  0.93115000  1
  O  O36  1  0.00000000  0.82836000  0.81736000  1
  O  O37  1  0.49944300  0.82883100  0.70226000  1
  O  O38  1  0.99764300  0.82904300  0.58631200  1
  O  O39  1  0.69747000  0.32836000  0.00000000  1
  O  O40  1  0.19747000  0.32836000  0.88621000  1
  O  O41  1  0.69747000  0.32836000  0.77241000  1
  O  O42  1  0.20022600  0.33016900  0.65599200  1
  O  O43  1  0.69727900  0.35181000  0.54831200  1
  O  O44  1  0.30253000  0.32836000  0.00000000  1
  O  O45  1  0.80253000  0.32836000  0.88621000  1
  O  O46  1  0.30253000  0.32836000  0.77241000  1
  O  O47  1  0.80006100  0.32997600  0.65610200  1
  O  O48  1  0.30119500  0.35436500  0.54971300  1
  O  O49  1  0.69747000  0.67164000  0.00000000  1
  O  O50  1  0.19747000  0.67164000  0.88621000  1
  O  O51  1  0.69747000  0.67164000  0.77241000  1
  O  O52  1  0.19509300  0.67184900  0.65982900  1
  O  O53  1  0.68183800  0.65686600  0.54728000  1
  O  O54  1  0.30253000  0.67164000  0.00000000  1
  O  O55  1  0.80253000  0.67164000  0.88621000  1
  O  O56  1  0.30253000  0.67164000  0.77241000  1
  O  O57  1  0.80455100  0.67184100  0.66022500  1
  O  O58  1  0.32014100  0.65684700  0.54911400  1
  O  O59  1  0.00000000  0.17164000  0.95506000  1
  O  O60  1  0.50000000  0.17164000  0.84126000  1
  O  O61  1  0.00021600  0.15531300  0.72933600  1
  O  O62  1  0.50039500  0.16136700  0.60951000  1
  O  O63  1  0.50000000  0.17164000  0.93115000  1
  O  O64  1  0.00000000  0.17164000  0.81736000  1
  O  O65  1  0.50017300  0.17278000  0.70028800  1
  O  O66  1  0.00259800  0.14893700  0.58487100  1
  O  O67  1  0.00000000  0.50000000  0.95668000  1
  O  O68  1  0.50000000  0.50000000  0.84289000  1
  O  O69  1  0.00049200  0.50002000  0.72830400  1
  O  O70  1  0.50262500  0.49893200  0.61255300  1
  O  O71  1  0.50000000  0.50000000  0.92952000  1
  O  O72  1  0.00000000  0.50000000  0.81573000  1
  O  O73  1  0.49949900  0.49692800  0.69965800  1
  O  O74  1  0.99540300  0.51280400  0.58598000  1
  O  O75  1  0.69034000  0.00000000  0.00000000  1
  O  O76  1  0.19034000  0.00000000  0.88621000  1
  O  O77  1  0.69034000  0.00000000  0.77241000  1
  O  O78  1  0.20079800  0.99584000  0.65668300  1
  O  O79  1  0.69281500  0.95620200  0.54138400  1
  O  O80  1  0.30966000  0.00000000  0.00000000  1
  O  O81  1  0.80966000  0.00000000  0.88621000  1
  O  O82  1  0.30966000  0.00000000  0.77241000  1
  O  O83  1  0.79951600  0.99647300  0.65676700  1
  O  O84  1  0.30619000  0.95187500  0.54155600  1
