# generated using pymatgen
data_MgTiMnVZnCrFeCoCuNiSb20ClO54
_symmetry_space_group_name_H-M   'P 1'
_cell_length_a   6.70977900
_cell_length_b   9.51313900
_cell_length_c   29.64576800
_cell_angle_alpha   90.19993300
_cell_angle_beta   89.95830900
_cell_angle_gamma   89.97578500
_symmetry_Int_Tables_number   1
_chemical_formula_structural   MgTiMnVZnCrFeCoCuNiSb20ClO54
_chemical_formula_sum
'Mg1 Ti1 Mn1 V1 Zn1 Cr1 Fe1 Co1 Cu1 Ni1 Sb20 Cl1 O54'
_cell_volume   1892.30861150
_cell_formula_units_Z   1
loop_
 _symmetry_equiv_pos_site_id
 _symmetry_equiv_pos_as_xyz
  1  'x, y, z'
loop_
 _atom_site_type_symbol
 _atom_site_label
 _atom_site_symmetry_multiplicity
 _atom_site_fract_x
 _atom_site_fract_y
 _atom_site_fract_z
 _atom_site_occupancy
  Mg  Mg0  1  0.50028800  0.99279800  0.66317500  1
  Ti  Ti1  1  0.00095200  0.83940400  0.65555400  1
  Mn  Mn2  1  0.50197200  0.50554600  0.54731100  1
  V  V3  1  0.00000000  0.50000000  0.88621000  1
  Zn  Zn4  1  0.00572500  0.00435300  0.55757200  1
  Cr  Cr5  1  0.50000000  0.83232000  1.00000000  1
  Fe  Fe6  1  0.50000000  0.66768000  0.88621000  1
  Co  Co7  1  0.50000000  0.83232000  0.77241000  1
  Cu  Cu8  1  0.50339800  0.83099300  0.54996400  1
  Ni  Ni9  1  0.00252700  0.33045500  0.55480500  1
  Sb  Sb10  1  0.00000000  0.00000000  0.00000000  1
  Sb  Sb11  1  0.50000000  1.00000000  0.88621000  1
  Sb  Sb12  1  0.00000000  0.00000000  0.77241000  1
  Sb  Sb13  1  0.50000000  0.50000000  1.00000000  1
  Sb  Sb14  1  0.50000000  0.50000000  0.77241000  1
  Sb  Sb15  1  0.99814100  0.50987100  0.65140700  1
  Sb  Sb16  1  1.00000000  0.33232000  1.00000000  1
  Sb  Sb17  1  0.50000000  0.33232000  0.88621000  1
  Sb  Sb18  1  0.00000000  0.33232000  0.77241000  1
  Sb  Sb19  1  0.49952300  0.32649300  0.65883600  1
  Sb  Sb20  1  0.00000000  0.83232000  0.88621000  1
  Sb  Sb21  1  0.50000000  0.16768000  1.00000000  1
  Sb  Sb22  1  0.00000000  0.16768000  0.88621000  1
  Sb  Sb23  1  0.50000000  0.16768000  0.77241000  1
  Sb  Sb24  1  0.00010100  0.15361700  0.65786100  1
  Sb  Sb25  1  0.50439800  0.16663700  0.55156900  1
  Sb  Sb26  1  1.00000000  0.66768000  1.00000000  1
  Sb  Sb27  1  0.00000000  0.66768000  0.77241000  1
  Sb  Sb28  1  0.49958800  0.68266200  0.65952100  1
  Sb  Sb29  1  0.00243600  0.68007100  0.54008500  1
  Cl  Cl30  1  0.50156500  0.49430000  0.47386200  1
  O  O31  1  0.00000000  0.17164000  0.95506000  1
  O  O32  1  0.50000000  0.17164000  0.84126000  1
  O  O33  1  0.99980400  0.15525700  0.72934800  1
  O  O34  1  0.50077200  0.16193700  0.61844000  1
  O  O35  1  0.50000000  0.17164000  0.93115000  1
  O  O36  1  0.00000000  0.17164000  0.81736000  1
  O  O37  1  0.49858400  0.17228600  0.70572400  1
  O  O38  1  0.00552000  0.17421100  0.59301900  1
  O  O39  1  0.30253000  0.67164000  1.00000000  1
  O  O40  1  0.80253000  0.67164000  0.88621000  1
  O  O41  1  0.30253000  0.67164000  0.77241000  1
  O  O42  1  0.80531200  0.68628700  0.66254800  1
  O  O43  1  0.32327100  0.65638200  0.54929800  1
  O  O44  1  0.69747000  0.67164000  1.00000000  1
  O  O45  1  0.19747000  0.67164000  0.88621000  1
  O  O46  1  0.69747000  0.67164000  0.77241000  1
  O  O47  1  0.19404400  0.68291300  0.66263900  1
  O  O48  1  0.68151300  0.65623100  0.54943900  1
  O  O49  1  0.30253000  0.32836000  1.00000000  1
  O  O50  1  0.80253000  0.32836000  0.88621000  1
  O  O51  1  0.30253000  0.32836000  0.77241000  1
  O  O52  1  0.80003700  0.31513200  0.66460200  1
  O  O53  1  0.31122900  0.33424000  0.54899000  1
  O  O54  1  0.69747000  0.32836000  1.00000000  1
  O  O55  1  0.19747000  0.32836000  0.88621000  1
  O  O56  1  0.69747000  0.32836000  0.77241000  1
  O  O57  1  0.19884000  0.31731900  0.66477700  1
  O  O58  1  0.69644300  0.33436800  0.54851200  1
  O  O59  1  0.00000000  0.82836000  0.95506000  1
  O  O60  1  0.50000000  0.82836000  0.84126000  1
  O  O61  1  0.99978400  0.84468700  0.72933600  1
  O  O62  1  0.49820500  0.83486700  0.61800900  1
  O  O63  1  0.50000000  0.82836000  0.93115000  1
  O  O64  1  0.00000000  0.82836000  0.81736000  1
  O  O65  1  0.49915100  0.82648200  0.70862800  1
  O  O66  1  0.00296300  0.82343700  0.59128800  1
  O  O67  1  0.00000000  0.50000000  0.95668000  1
  O  O68  1  0.50000000  0.50000000  0.84289000  1
  O  O69  1  0.99950800  0.49998000  0.72830400  1
  O  O70  1  0.50199600  0.49864900  0.61822600  1
  O  O71  1  0.50000000  0.50000000  0.92952000  1
  O  O72  1  0.00000000  0.50000000  0.81573000  1
  O  O73  1  0.50100100  0.49710400  0.70225700  1
  O  O74  1  0.00498500  0.51285800  0.57997500  1
  O  O75  1  0.30966000  0.00000000  1.00000000  1
  O  O76  1  0.80966000  1.00000000  0.88621000  1
  O  O77  1  0.30966000  0.00000000  0.77241000  1
  O  O78  1  0.81158100  0.99404800  0.66049800  1
  O  O79  1  0.30787900  0.00986100  0.54170300  1
  O  O80  1  0.69034000  1.00000000  0.00000000  1
  O  O81  1  0.19034000  0.00000000  0.88621000  1
  O  O82  1  0.69034000  1.00000000  0.77241000  1
  O  O83  1  0.18916700  0.99445900  0.66059800  1
  O  O84  1  0.70254100  0.01038100  0.54242400  1
