# generated using pymatgen
data_MgTiMnVZnCrFeCoCuNiSb20ClO54
_symmetry_space_group_name_H-M   'P 1'
_cell_length_a   6.65425100
_cell_length_b   9.52452300
_cell_length_c   28.94204000
_cell_angle_alpha   89.97824400
_cell_angle_beta   89.97116000
_cell_angle_gamma   89.95747100
_symmetry_Int_Tables_number   1
_chemical_formula_structural   MgTiMnVZnCrFeCoCuNiSb20ClO54
_chemical_formula_sum
'Mg1 Ti1 Mn1 V1 Zn1 Cr1 Fe1 Co1 Cu1 Ni1 Sb20 Cl1 O54'
_cell_volume   1834.30414282
_cell_formula_units_Z   1
loop_
 _symmetry_equiv_pos_site_id
 _symmetry_equiv_pos_as_xyz
  1  'x, y, z'
loop_
 _atom_site_type_symbol
 _atom_site_label
 _atom_site_symmetry_multiplicity
 _atom_site_fract_x
 _atom_site_fract_y
 _atom_site_fract_z
 _atom_site_occupancy
  Mg  Mg0  1  0.00090200  0.17723500  0.66305500  1
  Ti  Ti1  1  0.50000000  0.50000000  1.00000000  1
  Mn  Mn2  1  0.49847400  0.49840200  0.55222500  1
  V  V3  1  0.50000000  0.16768000  0.77241000  1
  Zn  Zn4  1  1.00000000  0.83232000  0.88621000  1
  Cr  Cr5  1  0.99963900  0.81773100  0.66204000  1
  Fe  Fe6  1  0.50000000  0.00000000  0.88621000  1
  Co  Co7  1  0.50000000  0.66768000  0.88621000  1
  Cu  Cu8  1  0.50000000  0.50000000  0.77241000  1
  Ni  Ni9  1  0.50025700  0.66488800  0.66017400  1
  Sb  Sb10  1  0.00000000  0.00000000  0.00000000  1
  Sb  Sb11  1  1.00000000  0.00000000  0.77241000  1
  Sb  Sb12  1  0.49971300  0.99573000  0.65411000  1
  Sb  Sb13  1  0.99840300  0.00139000  0.58322000  1
  Sb  Sb14  1  1.00000000  0.50000000  0.88621000  1
  Sb  Sb15  1  0.99988000  0.50584900  0.65734600  1
  Sb  Sb16  1  1.00000000  0.66768000  1.00000000  1
  Sb  Sb17  1  1.00000000  0.66768000  0.77241000  1
  Sb  Sb18  1  0.99912300  0.66678400  0.53954000  1
  Sb  Sb19  1  0.50000000  0.16768000  1.00000000  1
  Sb  Sb20  1  1.00000000  0.16768000  0.88621000  1
  Sb  Sb21  1  0.50065300  0.17836700  0.54064700  1
  Sb  Sb22  1  0.50000000  0.83232000  1.00000000  1
  Sb  Sb23  1  0.50000000  0.83232000  0.77241000  1
  Sb  Sb24  1  0.49671400  0.82013200  0.54141200  1
  Sb  Sb25  1  0.00000000  0.33232000  1.00000000  1
  Sb  Sb26  1  0.50000000  0.33232000  0.88621000  1
  Sb  Sb27  1  1.00000000  0.33232000  0.77241000  1
  Sb  Sb28  1  0.50052200  0.34878800  0.66289800  1
  Sb  Sb29  1  0.00084900  0.33303300  0.53982800  1
  Cl  Cl30  1  0.48728500  0.49257500  0.47340500  1
  O  O31  1  1.00000000  0.82836000  0.95506000  1
  O  O32  1  0.50000000  0.82836000  0.84126000  1
  O  O33  1  0.00019600  0.84474300  0.72934800  1
  O  O34  1  0.50051200  0.83343200  0.61086400  1
  O  O35  1  0.50000000  0.82836000  0.93115000  1
  O  O36  1  1.00000000  0.82836000  0.81736000  1
  O  O37  1  0.50019200  0.84213200  0.70136600  1
  O  O38  1  0.99655600  0.79715700  0.59343700  1
  O  O39  1  0.69747000  0.32836000  1.00000000  1
  O  O40  1  0.19747000  0.32836000  0.88621000  1
  O  O41  1  0.69747000  0.32836000  0.77241000  1
  O  O42  1  0.19516300  0.34303200  0.66171100  1
  O  O43  1  0.68701300  0.34785900  0.55264200  1
  O  O44  1  0.30253000  0.32836000  1.00000000  1
  O  O45  1  0.80253000  0.32836000  0.88621000  1
  O  O46  1  0.30253000  0.32836000  0.77241000  1
  O  O47  1  0.80585300  0.34261100  0.66179100  1
  O  O48  1  0.31152100  0.34837800  0.55409000  1
  O  O49  1  0.69747000  0.67164000  1.00000000  1
  O  O50  1  0.19747000  0.67164000  0.88621000  1
  O  O51  1  0.69747000  0.67164000  0.77241000  1
  O  O52  1  0.19086300  0.66754900  0.66278500  1
  O  O53  1  0.68710900  0.64792300  0.55028200  1
  O  O54  1  0.30253000  0.67164000  1.00000000  1
  O  O55  1  0.80253000  0.67164000  0.88621000  1
  O  O56  1  0.30253000  0.67164000  0.77241000  1
  O  O57  1  0.80868000  0.66756400  0.66313900  1
  O  O58  1  0.31021700  0.64895000  0.55247800  1
  O  O59  1  0.00000000  0.17164000  0.95506000  1
  O  O60  1  0.50000000  0.17164000  0.84126000  1
  O  O61  1  0.00021600  0.15531300  0.72933600  1
  O  O62  1  0.50001100  0.17073900  0.61304200  1
  O  O63  1  0.50000000  0.17164000  0.93115000  1
  O  O64  1  1.00000000  0.17164000  0.81736000  1
  O  O65  1  0.49994200  0.16213800  0.70190700  1
  O  O66  1  0.00114700  0.20401700  0.59318700  1
  O  O67  1  1.00000000  0.50000000  0.95668000  1
  O  O68  1  0.50000000  0.50000000  0.84289000  1
  O  O69  1  0.00049200  0.50002000  0.72830400  1
  O  O70  1  0.50325500  0.50413300  0.61671500  1
  O  O71  1  0.50000000  0.50000000  0.92952000  1
  O  O72  1  1.00000000  0.50000000  0.81573000  1
  O  O73  1  0.49985400  0.50733700  0.70568100  1
  O  O74  1  0.99657500  0.50026900  0.58420000  1
  O  O75  1  0.69034000  1.00000000  0.00000000  1
  O  O76  1  0.19034000  0.00000000  0.88621000  1
  O  O77  1  0.69034000  1.00000000  0.77241000  1
  O  O78  1  0.18265700  0.99416200  0.64703200  1
  O  O79  1  0.75892200  0.00734100  0.54490700  1
  O  O80  1  0.30966000  0.00000000  0.00000000  1
  O  O81  1  0.80966000  1.00000000  0.88621000  1
  O  O82  1  0.30966000  0.00000000  0.77241000  1
  O  O83  1  0.81699100  0.99471600  0.64716700  1
  O  O84  1  0.23695400  0.99996500  0.54447200  1
