# generated using pymatgen
data_MgTiMnVZnCrFeCoCuNiSb20ClO54
_symmetry_space_group_name_H-M   'P 1'
_cell_length_a   6.65261700
_cell_length_b   9.59633000
_cell_length_c   29.09236300
_cell_angle_alpha   90.03965700
_cell_angle_beta   89.96604500
_cell_angle_gamma   89.99878200
_symmetry_Int_Tables_number   1
_chemical_formula_structural   MgTiMnVZnCrFeCoCuNiSb20ClO54
_chemical_formula_sum
'Mg1 Ti1 Mn1 V1 Zn1 Cr1 Fe1 Co1 Cu1 Ni1 Sb20 Cl1 O54'
_cell_volume   1857.27628264
_cell_formula_units_Z   1
loop_
 _symmetry_equiv_pos_site_id
 _symmetry_equiv_pos_as_xyz
  1  'x, y, z'
loop_
 _atom_site_type_symbol
 _atom_site_label
 _atom_site_symmetry_multiplicity
 _atom_site_fract_x
 _atom_site_fract_y
 _atom_site_fract_z
 _atom_site_occupancy
  Mg  Mg0  1  0.50000000  0.50000000  0.77241000  1
  Ti  Ti1  1  1.00000000  0.00000000  0.77241000  1
  Mn  Mn2  1  0.49786100  0.48977800  0.54469000  1
  V  V3  1  0.50000000  0.16768000  0.77241000  1
  Zn  Zn4  1  0.00000000  0.33232000  0.00000000  1
  Cr  Cr5  1  0.49854800  0.17366000  0.55184900  1
  Fe  Fe6  1  0.50000000  0.83232000  0.77241000  1
  Co  Co7  1  0.50000000  0.83232000  0.00000000  1
  Cu  Cu8  1  0.99809500  0.66002000  0.55305000  1
  Ni  Ni9  1  1.00000000  0.50000000  0.88621000  1
  Sb  Sb10  1  0.00000000  0.00000000  0.00000000  1
  Sb  Sb11  1  0.50000000  0.00000000  0.88621000  1
  Sb  Sb12  1  0.50022700  0.00054300  0.66007700  1
  Sb  Sb13  1  0.99754100  0.99117600  0.54067800  1
  Sb  Sb14  1  0.50000000  0.50000000  0.00000000  1
  Sb  Sb15  1  0.00341200  0.50011700  0.65148800  1
  Sb  Sb16  1  0.00000000  0.66768000  0.00000000  1
  Sb  Sb17  1  0.50000000  0.66768000  0.88621000  1
  Sb  Sb18  1  1.00000000  0.66768000  0.77241000  1
  Sb  Sb19  1  0.50131900  0.66957300  0.65730200  1
  Sb  Sb20  1  0.50000000  0.16768000  0.00000000  1
  Sb  Sb21  1  0.00000000  0.16768000  0.88621000  1
  Sb  Sb22  1  0.99981800  0.16670900  0.65873400  1
  Sb  Sb23  1  0.00000000  0.83232000  0.88621000  1
  Sb  Sb24  1  0.99987200  0.83885800  0.65911800  1
  Sb  Sb25  1  0.49773600  0.80264600  0.53846900  1
  Sb  Sb26  1  0.50000000  0.33232000  0.88621000  1
  Sb  Sb27  1  1.00000000  0.33232000  0.77241000  1
  Sb  Sb28  1  0.50107500  0.33794800  0.66122200  1
  Sb  Sb29  1  0.99916800  0.32041900  0.53672400  1
  Cl  Cl30  1  0.48986800  0.49357800  0.46891300  1
  O  O31  1  0.00000000  0.82836000  0.95506000  1
  O  O32  1  0.50000000  0.82836000  0.84126000  1
  O  O33  1  0.00019600  0.84474300  0.72934800  1
  O  O34  1  0.50240700  0.82759000  0.61043900  1
  O  O35  1  0.50000000  0.82836000  0.93115000  1
  O  O36  1  0.00000000  0.82836000  0.81736000  1
  O  O37  1  0.50348800  0.82797000  0.70204100  1
  O  O38  1  0.99882700  0.84382300  0.59061000  1
  O  O39  1  0.69747000  0.32836000  0.00000000  1
  O  O40  1  0.19747000  0.32836000  0.88621000  1
  O  O41  1  0.69747000  0.32836000  0.77241000  1
  O  O42  1  0.20014400  0.31857000  0.66248800  1
  O  O43  1  0.67835000  0.33310900  0.54652900  1
  O  O44  1  0.30253000  0.32836000  0.00000000  1
  O  O45  1  0.80253000  0.32836000  0.88621000  1
  O  O46  1  0.30253000  0.32836000  0.77241000  1
  O  O47  1  0.80221100  0.32081300  0.66260500  1
  O  O48  1  0.31799600  0.33411800  0.54822700  1
  O  O49  1  0.69747000  0.67164000  0.00000000  1
  O  O50  1  0.19747000  0.67164000  0.88621000  1
  O  O51  1  0.69747000  0.67164000  0.77241000  1
  O  O52  1  0.20189500  0.68688700  0.65932300  1
  O  O53  1  0.69582500  0.64290300  0.54593800  1
  O  O54  1  0.30253000  0.67164000  0.00000000  1
  O  O55  1  0.80253000  0.67164000  0.88621000  1
  O  O56  1  0.30253000  0.67164000  0.77241000  1
  O  O57  1  0.80141400  0.68414900  0.65885600  1
  O  O58  1  0.30086000  0.64271700  0.54760300  1
  O  O59  1  0.00000000  0.17164000  0.95506000  1
  O  O60  1  0.50000000  0.17164000  0.84126000  1
  O  O61  1  0.00021600  0.15531300  0.72933600  1
  O  O62  1  0.50195500  0.17751100  0.61599800  1
  O  O63  1  0.50000000  0.17164000  0.93115000  1
  O  O64  1  0.00000000  0.17164000  0.81736000  1
  O  O65  1  0.50102100  0.17267900  0.70604600  1
  O  O66  1  0.99709600  0.16469800  0.58871400  1
  O  O67  1  0.00000000  0.50000000  0.95668000  1
  O  O68  1  0.50000000  0.50000000  0.84289000  1
  O  O69  1  0.00049200  0.50002000  0.72830400  1
  O  O70  1  0.50077300  0.49993300  0.61453100  1
  O  O71  1  0.50000000  0.50000000  0.92952000  1
  O  O72  1  1.00000000  0.50000000  0.81573000  1
  O  O73  1  0.49968500  0.50795200  0.70142500  1
  O  O74  1  0.99468600  0.47274800  0.58035800  1
  O  O75  1  0.69034000  0.00000000  0.00000000  1
  O  O76  1  0.19034000  0.00000000  0.88621000  1
  O  O77  1  0.69034000  0.00000000  0.77241000  1
  O  O78  1  0.18980600  0.00392200  0.65939000  1
  O  O79  1  0.68897900  0.03726100  0.54402400  1
  O  O80  1  0.30966000  0.00000000  0.00000000  1
  O  O81  1  0.80966000  0.00000000  0.88621000  1
  O  O82  1  0.30966000  0.00000000  0.77241000  1
  O  O83  1  0.81016100  0.00396800  0.65968300  1
  O  O84  1  0.30411300  0.04094000  0.54390100  1
