# generated using pymatgen
data_MgTiMnVZnCrFeCoCuNiSb20ClO54
_symmetry_space_group_name_H-M   'P 1'
_cell_length_a   6.68924300
_cell_length_b   9.50038700
_cell_length_c   29.76069600
_cell_angle_alpha   89.90507900
_cell_angle_beta   89.96917100
_cell_angle_gamma   89.99756500
_symmetry_Int_Tables_number   1
_chemical_formula_structural   MgTiMnVZnCrFeCoCuNiSb20ClO54
_chemical_formula_sum
'Mg1 Ti1 Mn1 V1 Zn1 Cr1 Fe1 Co1 Cu1 Ni1 Sb20 Cl1 O54'
_cell_volume   1891.30118199
_cell_formula_units_Z   1
loop_
 _symmetry_equiv_pos_site_id
 _symmetry_equiv_pos_as_xyz
  1  'x, y, z'
loop_
 _atom_site_type_symbol
 _atom_site_label
 _atom_site_symmetry_multiplicity
 _atom_site_fract_x
 _atom_site_fract_y
 _atom_site_fract_z
 _atom_site_occupancy
  Mg  Mg0  1  0.99877300  0.66317500  0.55715600  1
  Ti  Ti1  1  0.49997600  0.67812800  0.65840800  1
  Mn  Mn2  1  0.49911600  0.49812200  0.55023300  1
  V  V3  1  0.50000000  0.83232000  1.00000000  1
  Zn  Zn4  1  0.50000000  0.16768000  1.00000000  1
  Cr  Cr5  1  0.00000000  0.50000000  0.88621000  1
  Fe  Fe6  1  0.99986700  0.16108700  0.65866600  1
  Co  Co7  1  0.49983800  0.00173000  0.66127700  1
  Cu  Cu8  1  0.49850300  0.17205700  0.55488700  1
  Ni  Ni9  1  0.00000000  0.83232000  0.88621000  1
  Sb  Sb10  1  0.00000000  0.00000000  0.00000000  1
  Sb  Sb11  1  0.50000000  0.00000000  0.88621000  1
  Sb  Sb12  1  0.00000000  0.00000000  0.77241000  1
  Sb  Sb13  1  0.99828900  0.00862300  0.54510500  1
  Sb  Sb14  1  0.50000000  0.50000000  1.00000000  1
  Sb  Sb15  1  0.50000000  0.50000000  0.77241000  1
  Sb  Sb16  1  0.99982900  0.49892200  0.65831400  1
  Sb  Sb17  1  0.00000000  0.66768000  0.00000000  1
  Sb  Sb18  1  0.50000000  0.66768000  0.88621000  1
  Sb  Sb19  1  0.00000000  0.66768000  0.77241000  1
  Sb  Sb20  1  0.00000000  0.16768000  0.88621000  1
  Sb  Sb21  1  0.50000000  0.16768000  0.77241000  1
  Sb  Sb22  1  0.50000000  0.83232000  0.77241000  1
  Sb  Sb23  1  0.99950700  0.84718800  0.65660700  1
  Sb  Sb24  1  0.49895300  0.82568400  0.54848800  1
  Sb  Sb25  1  1.00000000  0.33232000  0.00000000  1
  Sb  Sb26  1  0.50000000  0.33232000  0.88621000  1
  Sb  Sb27  1  0.00000000  0.33232000  0.77241000  1
  Sb  Sb28  1  0.49996900  0.33493000  0.65782400  1
  Sb  Sb29  1  0.99953200  0.33501000  0.54717400  1
  Cl  Cl30  1  0.49642500  0.48257700  0.47661200  1
  O  O31  1  0.00000000  0.82836000  0.95506000  1
  O  O32  1  0.50000000  0.82836000  0.84126000  1
  O  O33  1  0.00019600  0.84474300  0.72934800  1
  O  O34  1  0.50010300  0.81745100  0.61630800  1
  O  O35  1  0.50000000  0.82836000  0.93115000  1
  O  O36  1  0.00000000  0.82836000  0.81736000  1
  O  O37  1  0.49975000  0.82346700  0.70526100  1
  O  O38  1  0.99609200  0.84317800  0.58854600  1
  O  O39  1  0.69747000  0.32836000  0.00000000  1
  O  O40  1  0.19747000  0.32836000  0.88621000  1
  O  O41  1  0.69747000  0.32836000  0.77241000  1
  O  O42  1  0.19252500  0.33720800  0.66323600  1
  O  O43  1  0.68025100  0.34220300  0.55583000  1
  O  O44  1  0.30253000  0.32836000  1.00000000  1
  O  O45  1  0.80253000  0.32836000  0.88621000  1
  O  O46  1  0.30253000  0.32836000  0.77241000  1
  O  O47  1  0.80731800  0.33735800  0.66364000  1
  O  O48  1  0.31785600  0.34194100  0.55668300  1
  O  O49  1  0.69747000  0.67164000  0.00000000  1
  O  O50  1  0.19747000  0.67164000  0.88621000  1
  O  O51  1  0.69747000  0.67164000  0.77241000  1
  O  O52  1  0.19042300  0.67092500  0.66074400  1
  O  O53  1  0.69536800  0.64704800  0.54790800  1
  O  O54  1  0.30253000  0.67164000  1.00000000  1
  O  O55  1  0.80253000  0.67164000  0.88621000  1
  O  O56  1  0.30253000  0.67164000  0.77241000  1
  O  O57  1  0.80900000  0.67079600  0.66113800  1
  O  O58  1  0.30245900  0.64730700  0.54840000  1
  O  O59  1  0.00000000  0.17164000  0.95506000  1
  O  O60  1  0.50000000  0.17164000  0.84126000  1
  O  O61  1  0.00021600  0.15531300  0.72933600  1
  O  O62  1  0.50213300  0.16236500  0.62283100  1
  O  O63  1  0.50000000  0.17164000  0.93115000  1
  O  O64  1  0.00000000  0.17164000  0.81736000  1
  O  O65  1  0.49809700  0.17490800  0.70657500  1
  O  O66  1  0.99897900  0.16884500  0.59077700  1
  O  O67  1  0.00000000  0.50000000  0.95668000  1
  O  O68  1  0.50000000  0.50000000  0.84289000  1
  O  O69  1  0.00049200  0.50002000  0.72830400  1
  O  O70  1  0.50062900  0.51269800  0.61910300  1
  O  O71  1  0.50000000  0.50000000  0.92952000  1
  O  O72  1  0.00000000  0.50000000  0.81573000  1
  O  O73  1  0.49931300  0.50240700  0.70275400  1
  O  O74  1  0.99701500  0.49249100  0.59267300  1
  O  O75  1  0.69034000  1.00000000  0.00000000  1
  O  O76  1  0.19034000  0.00000000  0.88621000  1
  O  O77  1  0.69034000  1.00000000  0.77241000  1
  O  O78  1  0.19940500  0.00020800  0.66087500  1
  O  O79  1  0.68539700  0.00465100  0.54886900  1
  O  O80  1  0.30966000  0.00000000  1.00000000  1
  O  O81  1  0.80966000  1.00000000  0.88621000  1
  O  O82  1  0.30966000  0.00000000  0.77241000  1
  O  O83  1  0.80032100  0.00053600  0.66134000  1
  O  O84  1  0.31107500  0.00296100  0.54919900  1
