# generated using pymatgen
data_MgTiMnVZnCrFeCoCuNiSb20ClO54
_symmetry_space_group_name_H-M   'P 1'
_cell_length_a   6.62431800
_cell_length_b   9.59440200
_cell_length_c   28.78474600
_cell_angle_alpha   90.17778900
_cell_angle_beta   89.99326900
_cell_angle_gamma   89.99760200
_symmetry_Int_Tables_number   1
_chemical_formula_structural   MgTiMnVZnCrFeCoCuNiSb20ClO54
_chemical_formula_sum
'Mg1 Ti1 Mn1 V1 Zn1 Cr1 Fe1 Co1 Cu1 Ni1 Sb20 Cl1 O54'
_cell_volume   1829.44514151
_cell_formula_units_Z   1
loop_
 _symmetry_equiv_pos_site_id
 _symmetry_equiv_pos_as_xyz
  1  'x, y, z'
loop_
 _atom_site_type_symbol
 _atom_site_label
 _atom_site_symmetry_multiplicity
 _atom_site_fract_x
 _atom_site_fract_y
 _atom_site_fract_z
 _atom_site_occupancy
  Mg  Mg0  1  0.49953600  0.66736300  0.65462200  1
  Ti  Ti1  1  0.00000000  0.83232000  0.88621000  1
  Mn  Mn2  1  0.49853300  0.49709000  0.54930400  1
  V  V3  1  0.00000000  0.16768000  0.88621000  1
  Zn  Zn4  1  0.99738900  0.00462600  0.55588500  1
  Cr  Cr5  1  0.00000000  0.00000000  0.00000000  1
  Fe  Fe6  1  1.00000000  0.33232000  0.00000000  1
  Co  Co7  1  0.00000000  0.50000000  0.88621000  1
  Cu  Cu8  1  0.00000000  1.00000000  0.77241000  1
  Ni  Ni9  1  0.50000000  0.16768000  0.00000000  1
  Sb  Sb10  1  0.50000000  1.00000000  0.88621000  1
  Sb  Sb11  1  0.50006300  0.99353700  0.65378300  1
  Sb  Sb12  1  0.50000000  0.50000000  0.00000000  1
  Sb  Sb13  1  0.50000000  0.50000000  0.77241000  1
  Sb  Sb14  1  0.99832400  0.51321300  0.65028400  1
  Sb  Sb15  1  0.00000000  0.66768000  0.00000000  1
  Sb  Sb16  1  0.50000000  0.66768000  0.88621000  1
  Sb  Sb17  1  0.00000000  0.66768000  0.77241000  1
  Sb  Sb18  1  0.00003400  0.68013800  0.53632400  1
  Sb  Sb19  1  0.50000000  0.16768000  0.77241000  1
  Sb  Sb20  1  0.00017600  0.16957400  0.66039300  1
  Sb  Sb21  1  0.49748100  0.17378600  0.52495600  1
  Sb  Sb22  1  0.50000000  0.83232000  0.00000000  1
  Sb  Sb23  1  0.50000000  0.83232000  0.77241000  1
  Sb  Sb24  1  0.00001700  0.82858100  0.66008700  1
  Sb  Sb25  1  0.49707800  0.83080300  0.53709900  1
  Sb  Sb26  1  0.50000000  0.33232000  0.88621000  1
  Sb  Sb27  1  0.00000000  0.33232000  0.77241000  1
  Sb  Sb28  1  0.50022000  0.33062500  0.65456000  1
  Sb  Sb29  1  0.99996200  0.31876900  0.53667900  1
  Cl  Cl30  1  0.48483400  0.49629200  0.47140400  1
  O  O31  1  0.00000000  0.82836000  0.95506000  1
  O  O32  1  0.50000000  0.82836000  0.84126000  1
  O  O33  1  0.00019600  0.84474300  0.72934800  1
  O  O34  1  0.50010600  0.83919200  0.60939300  1
  O  O35  1  0.50000000  0.82836000  0.93115000  1
  O  O36  1  0.00000000  0.82836000  0.81736000  1
  O  O37  1  0.49909000  0.84084900  0.70131000  1
  O  O38  1  0.99808300  0.82155900  0.59017800  1
  O  O39  1  0.69747000  0.32836000  0.00000000  1
  O  O40  1  0.19747000  0.32836000  0.88621000  1
  O  O41  1  0.69747000  0.32836000  0.77241000  1
  O  O42  1  0.20613000  0.31839800  0.66621200  1
  O  O43  1  0.68514000  0.34137000  0.55016900  1
  O  O44  1  0.30253000  0.32836000  0.00000000  1
  O  O45  1  0.80253000  0.32836000  0.88621000  1
  O  O46  1  0.30253000  0.32836000  0.77241000  1
  O  O47  1  0.79389200  0.31774400  0.66692100  1
  O  O48  1  0.31337300  0.34083900  0.55227900  1
  O  O49  1  0.69747000  0.67164000  0.00000000  1
  O  O50  1  0.19747000  0.67164000  0.88621000  1
  O  O51  1  0.69747000  0.67164000  0.77241000  1
  O  O52  1  0.19993300  0.67795600  0.66254200  1
  O  O53  1  0.68753200  0.64847300  0.55033900  1
  O  O54  1  0.30253000  0.67164000  0.00000000  1
  O  O55  1  0.80253000  0.67164000  0.88621000  1
  O  O56  1  0.30253000  0.67164000  0.77241000  1
  O  O57  1  0.79935000  0.67880600  0.66279900  1
  O  O58  1  0.31018100  0.64865800  0.55308400  1
  O  O59  1  0.00000000  0.17164000  0.95506000  1
  O  O60  1  0.50000000  0.17164000  0.84126000  1
  O  O61  1  0.00021600  0.15531300  0.72933600  1
  O  O62  1  0.50086300  0.16141400  0.61244300  1
  O  O63  1  0.50000000  0.17164000  0.93115000  1
  O  O64  1  0.00000000  0.17164000  0.81736000  1
  O  O65  1  0.49905100  0.15916900  0.70124200  1
  O  O66  1  0.99760700  0.18530800  0.59220100  1
  O  O67  1  0.00000000  0.50000000  0.95668000  1
  O  O68  1  0.50000000  0.50000000  0.84289000  1
  O  O69  1  0.00049200  0.50002000  0.72830400  1
  O  O70  1  0.50668400  0.49391200  0.61489100  1
  O  O71  1  0.50000000  0.50000000  0.92952000  1
  O  O72  1  1.00000000  0.50000000  0.81573000  1
  O  O73  1  0.49879900  0.48848900  0.70178100  1
  O  O74  1  0.99805800  0.49966800  0.57014600  1
  O  O75  1  0.69034000  0.00000000  0.00000000  1
  O  O76  1  0.19034000  1.00000000  0.88621000  1
  O  O77  1  0.69034000  1.00000000  0.77241000  1
  O  O78  1  0.18957500  0.99949300  0.65625600  1
  O  O79  1  0.70998800  0.01092500  0.54157000  1
  O  O80  1  0.30966000  0.00000000  0.00000000  1
  O  O81  1  0.80966000  1.00000000  0.88621000  1
  O  O82  1  0.30966000  1.00000000  0.77241000  1
  O  O83  1  0.81052700  0.99946400  0.65636700  1
  O  O84  1  0.28552500  0.01125800  0.54214800  1
