# generated using pymatgen
data_MgTiMnVZnCrFeCoCuNiSb20ClO54
_symmetry_space_group_name_H-M   'P 1'
_cell_length_a   6.69627500
_cell_length_b   9.68403900
_cell_length_c   29.19296700
_cell_angle_alpha   89.42214800
_cell_angle_beta   89.83232000
_cell_angle_gamma   89.77625100
_symmetry_Int_Tables_number   1
_chemical_formula_structural   MgTiMnVZnCrFeCoCuNiSb20ClO54
_chemical_formula_sum
'Mg1 Ti1 Mn1 V1 Zn1 Cr1 Fe1 Co1 Cu1 Ni1 Sb20 Cl1 O54'
_cell_volume   1892.95738639
_cell_formula_units_Z   1
loop_
 _symmetry_equiv_pos_site_id
 _symmetry_equiv_pos_as_xyz
  1  'x, y, z'
loop_
 _atom_site_type_symbol
 _atom_site_label
 _atom_site_symmetry_multiplicity
 _atom_site_fract_x
 _atom_site_fract_y
 _atom_site_fract_z
 _atom_site_occupancy
  Mg  Mg0  1  0.00000000  0.33232000  0.00000000  1
  Ti  Ti1  1  0.50000000  0.33232000  0.88621000  1
  Mn  Mn2  1  0.54376900  0.53031200  0.55488000  1
  V  V3  1  0.95310600  0.31155600  0.55303300  1
  Zn  Zn4  1  0.00000000  0.00000000  0.77241000  1
  Cr  Cr5  1  0.50000000  0.00000000  0.88621000  1
  Fe  Fe6  1  0.50689100  0.00751000  0.66186900  1
  Co  Co7  1  0.50000000  0.16768000  0.77241000  1
  Cu  Cu8  1  0.00173500  0.00412200  0.55650000  1
  Ni  Ni9  1  0.04380200  0.65039200  0.56979200  1
  Sb  Sb10  1  0.00000000  0.00000000  0.00000000  1
  Sb  Sb11  1  0.50000000  0.50000000  0.00000000  1
  Sb  Sb12  1  1.00000000  0.50000000  0.88621000  1
  Sb  Sb13  1  0.50000000  0.50000000  0.77241000  1
  Sb  Sb14  1  0.00728100  0.50957500  0.64825100  1
  Sb  Sb15  1  0.00000000  0.33232000  0.77241000  1
  Sb  Sb16  1  0.50717600  0.32647800  0.66164300  1
  Sb  Sb17  1  0.50000000  0.83232000  0.00000000  1
  Sb  Sb18  1  1.00000000  0.83232000  0.88621000  1
  Sb  Sb19  1  0.50000000  0.83232000  0.77241000  1
  Sb  Sb20  1  0.99822400  0.84632200  0.65980400  1
  Sb  Sb21  1  0.53146700  0.84688800  0.54519200  1
  Sb  Sb22  1  0.50000000  0.16768000  0.00000000  1
  Sb  Sb23  1  0.00000000  0.16768000  0.88621000  1
  Sb  Sb24  1  0.01526300  0.16376700  0.66195900  1
  Sb  Sb25  1  0.46376600  0.17293200  0.54607000  1
  Sb  Sb26  1  1.00000000  0.66768000  0.00000000  1
  Sb  Sb27  1  0.50000000  0.66768000  0.88621000  1
  Sb  Sb28  1  1.00000000  0.66768000  0.77241000  1
  Sb  Sb29  1  0.50320300  0.68498800  0.65424600  1
  Cl  Cl30  1  0.48619000  0.53466600  0.48262800  1
  O  O31  1  0.00000000  0.17164000  0.95506000  1
  O  O32  1  0.50000000  0.17164000  0.84126000  1
  O  O33  1  0.99980400  0.15525700  0.72934800  1
  O  O34  1  0.48134800  0.17558500  0.61515900  1
  O  O35  1  0.50000000  0.17164000  0.93115000  1
  O  O36  1  0.00000000  0.17164000  0.81736000  1
  O  O37  1  0.51031400  0.17079600  0.70456400  1
  O  O38  1  0.03951800  0.17785700  0.59340800  1
  O  O39  1  0.30253000  0.67164000  0.00000000  1
  O  O40  1  0.80253000  0.67164000  0.88621000  1
  O  O41  1  0.30253000  0.67164000  0.77241000  1
  O  O42  1  0.80467000  0.68528200  0.66537500  1
  O  O43  1  0.34673300  0.66941000  0.56556100  1
  O  O44  1  0.69747000  0.67164000  0.00000000  1
  O  O45  1  0.19747000  0.67164000  0.88621000  1
  O  O46  1  0.69747000  0.67164000  0.77241000  1
  O  O47  1  0.20437300  0.69012700  0.66438100  1
  O  O48  1  0.76353900  0.63860600  0.56243300  1
  O  O49  1  0.30253000  0.32836000  0.00000000  1
  O  O50  1  0.80253000  0.32836000  0.88621000  1
  O  O51  1  0.30253000  0.32836000  0.77241000  1
  O  O52  1  0.81272900  0.32064000  0.65769700  1
  O  O53  1  0.03770200  0.26954100  0.50369600  1
  O  O54  1  0.69747000  0.32836000  0.00000000  1
  O  O55  1  0.19747000  0.32836000  0.88621000  1
  O  O56  1  0.69747000  0.32836000  0.77241000  1
  O  O57  1  0.20255300  0.32792900  0.66567500  1
  O  O58  1  0.69443800  0.35817100  0.55388100  1
  O  O59  1  1.00000000  0.82836000  0.95506000  1
  O  O60  1  0.50000000  0.82836000  0.84126000  1
  O  O61  1  0.99978400  0.84468700  0.72933600  1
  O  O62  1  0.53586600  0.85681000  0.61626700  1
  O  O63  1  0.50000000  0.82836000  0.93115000  1
  O  O64  1  1.00000000  0.82836000  0.81736000  1
  O  O65  1  0.50352900  0.83143500  0.70335200  1
  O  O66  1  0.99924400  0.83048500  0.59167000  1
  O  O67  1  1.00000000  0.50000000  0.95668000  1
  O  O68  1  0.50000000  0.50000000  0.84289000  1
  O  O69  1  0.99950800  0.49998000  0.72830400  1
  O  O70  1  0.50073600  0.49779600  0.61966400  1
  O  O71  1  0.50000000  0.50000000  0.92952000  1
  O  O72  1  1.00000000  0.50000000  0.81573000  1
  O  O73  1  0.50328800  0.50969800  0.70256700  1
  O  O74  1  0.07528400  0.46048000  0.56790900  1
  O  O75  1  0.30966000  0.00000000  0.00000000  1
  O  O76  1  0.80966000  0.00000000  0.88621000  1
  O  O77  1  0.30966000  0.00000000  0.77241000  1
  O  O78  1  0.81010300  0.01204100  0.65896900  1
  O  O79  1  0.30040200  0.98617600  0.54736800  1
  O  O80  1  0.69034000  0.00000000  0.00000000  1
  O  O81  1  0.19034000  0.00000000  0.88621000  1
  O  O82  1  0.69034000  0.00000000  0.77241000  1
  O  O83  1  0.20222100  0.00126700  0.66035000  1
  O  O84  1  0.70254500  0.04135000  0.54694400  1
