# generated using pymatgen
data_MgTiMnVZnCrFeCoCuNiSb20ClO54
_symmetry_space_group_name_H-M   'P 1'
_cell_length_a   6.64395000
_cell_length_b   9.58829400
_cell_length_c   29.03431400
_cell_angle_alpha   89.66774400
_cell_angle_beta   89.65119700
_cell_angle_gamma   89.84025300
_symmetry_Int_Tables_number   1
_chemical_formula_structural   MgTiMnVZnCrFeCoCuNiSb20ClO54
_chemical_formula_sum
'Mg1 Ti1 Mn1 V1 Zn1 Cr1 Fe1 Co1 Cu1 Ni1 Sb20 Cl1 O54'
_cell_volume   1849.53379499
_cell_formula_units_Z   1
loop_
 _symmetry_equiv_pos_site_id
 _symmetry_equiv_pos_as_xyz
  1  'x, y, z'
loop_
 _atom_site_type_symbol
 _atom_site_label
 _atom_site_symmetry_multiplicity
 _atom_site_fract_x
 _atom_site_fract_y
 _atom_site_fract_z
 _atom_site_occupancy
  Mg  Mg0  1  0.00000000  0.33232000  0.00000000  1
  Ti  Ti1  1  0.96735300  0.62566100  0.44812200  1
  Mn  Mn2  1  0.49212500  0.47963100  0.45021500  1
  V  V3  1  0.50000000  0.00000000  0.11379000  1
  Zn  Zn4  1  0.49767100  0.33834800  0.33771400  1
  Cr  Cr5  1  0.50655900  0.64313800  0.34030700  1
  Fe  Fe6  1  0.50000000  0.16768000  1.00000000  1
  Co  Co7  1  0.00000000  0.16768000  0.11379000  1
  Cu  Cu8  1  0.50000000  0.50000000  0.22759000  1
  Ni  Ni9  1  0.00000000  0.33232000  0.22759000  1
  Sb  Sb10  1  0.00000000  0.00000000  0.00000000  1
  Sb  Sb11  1  0.00000000  0.00000000  0.22759000  1
  Sb  Sb12  1  0.50103100  0.99601100  0.34342100  1
  Sb  Sb13  1  0.94455700  0.00692500  0.45683800  1
  Sb  Sb14  1  0.50000000  0.50000000  0.00000000  1
  Sb  Sb15  1  0.00000000  0.50000000  0.11379000  1
  Sb  Sb16  1  0.99760700  0.48519600  0.33829600  1
  Sb  Sb17  1  0.50000000  0.33232000  0.11379000  1
  Sb  Sb18  1  0.99487100  0.33464900  0.46881900  1
  Sb  Sb19  1  0.50000000  0.83232000  1.00000000  1
  Sb  Sb20  1  0.00000000  0.83232000  0.11379000  1
  Sb  Sb21  1  0.50000000  0.83232000  0.22759000  1
  Sb  Sb22  1  0.01730000  0.81115100  0.34712600  1
  Sb  Sb23  1  0.45073200  0.80346200  0.45544100  1
  Sb  Sb24  1  0.50000000  0.16768000  0.22759000  1
  Sb  Sb25  1  0.99454500  0.16679900  0.34036500  1
  Sb  Sb26  1  0.47802600  0.17275100  0.45816700  1
  Sb  Sb27  1  0.00000000  0.66768000  0.00000000  1
  Sb  Sb28  1  0.50000000  0.66768000  0.11379000  1
  Sb  Sb29  1  0.00000000  0.66768000  0.22759000  1
  Cl  Cl30  1  0.45403000  0.41391700  0.52771400  1
  O  O31  1  0.00000000  0.17164000  0.04494000  1
  O  O32  1  0.50000000  0.17164000  0.15874000  1
  O  O33  1  0.00019600  0.15525700  0.27065200  1
  O  O34  1  0.50950300  0.14299500  0.39007600  1
  O  O35  1  0.50000000  0.17164000  0.06885000  1
  O  O36  1  0.00000000  0.17164000  0.18264000  1
  O  O37  1  0.51326100  0.15028900  0.29803700  1
  O  O38  1  0.98826300  0.17280600  0.41314900  1
  O  O39  1  0.69747000  0.67164000  0.00000000  1
  O  O40  1  0.19747000  0.67164000  0.11379000  1
  O  O41  1  0.69747000  0.67164000  0.22759000  1
  O  O42  1  0.20794200  0.63708300  0.34399400  1
  O  O43  1  0.69409400  0.60840300  0.46485400  1
  O  O44  1  0.30253000  0.67164000  0.00000000  1
  O  O45  1  0.80253000  0.67164000  0.11379000  1
  O  O46  1  0.30253000  0.67164000  0.22759000  1
  O  O47  1  0.80605200  0.65164100  0.33990100  1
  O  O48  1  0.27605300  0.62953300  0.45772400  1
  O  O49  1  0.69747000  0.32836000  1.00000000  1
  O  O50  1  0.19747000  0.32836000  0.11379000  1
  O  O51  1  0.69747000  0.32836000  0.22759000  1
  O  O52  1  0.19115200  0.32505200  0.33951100  1
  O  O53  1  0.67976300  0.33139600  0.44744800  1
  O  O54  1  0.30253000  0.32836000  1.00000000  1
  O  O55  1  0.80253000  0.32836000  0.11379000  1
  O  O56  1  0.30253000  0.32836000  0.22759000  1
  O  O57  1  0.80307400  0.32552700  0.33807800  1
  O  O58  1  0.29281800  0.33169000  0.44108500  1
  O  O59  1  0.00000000  0.82836000  0.04494000  1
  O  O60  1  0.50000000  0.82836000  0.15874000  1
  O  O61  1  0.00021600  0.84468700  0.27066400  1
  O  O62  1  0.48591500  0.81962500  0.38581300  1
  O  O63  1  0.50000000  0.82836000  0.06885000  1
  O  O64  1  0.00000000  0.82836000  0.18264000  1
  O  O65  1  0.49795700  0.83007700  0.29903000  1
  O  O66  1  0.95493900  0.78891100  0.42022500  1
  O  O67  1  0.00000000  0.50000000  0.04332000  1
  O  O68  1  0.50000000  0.50000000  0.15711000  1
  O  O69  1  0.00049200  0.49998000  0.27169600  1
  O  O70  1  0.51600900  0.50050700  0.38778900  1
  O  O71  1  0.50000000  0.50000000  0.07048000  1
  O  O72  1  0.00000000  0.50000000  0.18427000  1
  O  O73  1  0.50806400  0.51151800  0.29820000  1
  O  O74  1  0.97878000  0.48713300  0.40694100  1
  O  O75  1  0.69034000  1.00000000  1.00000000  1
  O  O76  1  0.19034000  0.00000000  0.11379000  1
  O  O77  1  0.69034000  1.00000000  0.22759000  1
  O  O78  1  0.20068200  0.01441700  0.34451300  1
  O  O79  1  0.00216000  0.15602100  0.50249000  1
  O  O80  1  0.30966000  0.00000000  1.00000000  1
  O  O81  1  0.80966000  1.00000000  0.11379000  1
  O  O82  1  0.30966000  0.00000000  0.22759000  1
  O  O83  1  0.80520900  0.99899600  0.34757200  1
  O  O84  1  0.23398700  0.95645500  0.45579300  1
