# generated using pymatgen
data_MgTiMnVZnCrFeCoCuNiSb20ClO54
_symmetry_space_group_name_H-M   'P 1'
_cell_length_a   6.53557300
_cell_length_b   9.43932600
_cell_length_c   28.93617600
_cell_angle_alpha   89.97085100
_cell_angle_beta   89.95032000
_cell_angle_gamma   89.94163000
_symmetry_Int_Tables_number   1
_chemical_formula_structural   MgTiMnVZnCrFeCoCuNiSb20ClO54
_chemical_formula_sum
'Mg1 Ti1 Mn1 V1 Zn1 Cr1 Fe1 Co1 Cu1 Ni1 Sb20 Cl1 O54'
_cell_volume   1785.11150039
_cell_formula_units_Z   1
loop_
 _symmetry_equiv_pos_site_id
 _symmetry_equiv_pos_as_xyz
  1  'x, y, z'
loop_
 _atom_site_type_symbol
 _atom_site_label
 _atom_site_symmetry_multiplicity
 _atom_site_fract_x
 _atom_site_fract_y
 _atom_site_fract_z
 _atom_site_occupancy
  Mg  Mg0  1  1.00000000  0.83232000  0.88621000  1
  Ti  Ti1  1  0.50000000  0.66768000  0.88621000  1
  Mn  Mn2  1  0.50324600  0.51174500  0.54317200  1
  V  V3  1  0.50000000  0.16768000  1.00000000  1
  Zn  Zn4  1  1.00000000  0.16768000  0.88621000  1
  Cr  Cr5  1  1.00000000  0.66768000  0.00000000  1
  Fe  Fe6  1  0.50000000  0.50000000  1.00000000  1
  Co  Co7  1  0.00000000  0.00000000  0.00000000  1
  Cu  Cu8  1  0.00274500  0.35515000  0.55522800  1
  Ni  Ni9  1  0.50000000  0.83232000  0.77241000  1
  Sb  Sb10  1  0.50000000  0.00000000  0.88621000  1
  Sb  Sb11  1  1.00000000  0.00000000  0.77241000  1
  Sb  Sb12  1  0.50111000  0.99820000  0.65823300  1
  Sb  Sb13  1  0.00065200  0.03076200  0.52193600  1
  Sb  Sb14  1  1.00000000  0.50000000  0.88621000  1
  Sb  Sb15  1  0.50000000  0.50000000  0.77241000  1
  Sb  Sb16  1  0.99624900  0.50860300  0.64216600  1
  Sb  Sb17  1  1.00000000  0.66768000  0.77241000  1
  Sb  Sb18  1  0.50210200  0.68118900  0.65875700  1
  Sb  Sb19  1  0.00465200  0.62476100  0.51418200  1
  Sb  Sb20  1  0.50000000  0.16768000  0.77241000  1
  Sb  Sb21  1  0.99924600  0.15603400  0.65380600  1
  Sb  Sb22  1  0.49984800  0.19000500  0.53690500  1
  Sb  Sb23  1  0.50000000  0.83232000  1.00000000  1
  Sb  Sb24  1  0.00322200  0.82601000  0.62293800  1
  Sb  Sb25  1  0.50083300  0.83421900  0.51238800  1
  Sb  Sb26  1  0.00000000  0.33232000  0.00000000  1
  Sb  Sb27  1  0.50000000  0.33232000  0.88621000  1
  Sb  Sb28  1  1.00000000  0.33232000  0.77241000  1
  Sb  Sb29  1  0.49879300  0.33686400  0.64805800  1
  Cl  Cl30  1  0.48553000  0.45774600  0.46786900  1
  O  O31  1  1.00000000  0.82836000  0.95506000  1
  O  O32  1  0.50000000  0.82836000  0.84126000  1
  O  O33  1  0.00019600  0.84474300  0.72934800  1
  O  O34  1  0.50050700  0.83876300  0.61330000  1
  O  O35  1  0.50000000  0.82836000  0.93115000  1
  O  O36  1  1.00000000  0.82836000  0.81736000  1
  O  O37  1  0.49864900  0.83906300  0.70420300  1
  O  O38  1  0.00122000  0.83037600  0.49910100  1
  O  O39  1  0.69747000  0.32836000  1.00000000  1
  O  O40  1  0.19747000  0.32836000  0.88621000  1
  O  O41  1  0.69747000  0.32836000  0.77241000  1
  O  O42  1  0.19998700  0.31252900  0.66346100  1
  O  O43  1  0.70424900  0.36217400  0.55445600  1
  O  O44  1  0.30253000  0.32836000  1.00000000  1
  O  O45  1  0.80253000  0.32836000  0.88621000  1
  O  O46  1  0.30253000  0.32836000  0.77241000  1
  O  O47  1  0.79770200  0.31160400  0.66344800  1
  O  O48  1  0.30182200  0.36359400  0.55767000  1
  O  O49  1  0.69747000  0.67164000  1.00000000  1
  O  O50  1  0.19747000  0.67164000  0.88621000  1
  O  O51  1  0.69747000  0.67164000  0.77241000  1
  O  O52  1  0.19535400  0.68228200  0.66019900  1
  O  O53  1  0.68592400  0.65973000  0.53254000  1
  O  O54  1  0.30253000  0.67164000  1.00000000  1
  O  O55  1  0.80253000  0.67164000  0.88621000  1
  O  O56  1  0.30253000  0.67164000  0.77241000  1
  O  O57  1  0.81014400  0.68711000  0.66175000  1
  O  O58  1  0.31967500  0.66376300  0.53633300  1
  O  O59  1  0.00000000  0.17164000  0.95506000  1
  O  O60  1  0.50000000  0.17164000  0.84126000  1
  O  O61  1  0.00021600  0.15531300  0.72933600  1
  O  O62  1  0.50104200  0.15555300  0.60982600  1
  O  O63  1  0.50000000  0.17164000  0.93115000  1
  O  O64  1  1.00000000  0.17164000  0.81736000  1
  O  O65  1  0.49888000  0.16952600  0.70179400  1
  O  O66  1  0.99983600  0.15225000  0.58653600  1
  O  O67  1  1.00000000  0.50000000  0.95668000  1
  O  O68  1  0.50000000  0.50000000  0.84289000  1
  O  O69  1  0.00049200  0.50002000  0.72830400  1
  O  O70  1  0.51501100  0.52781100  0.61098500  1
  O  O71  1  0.50000000  0.50000000  0.92952000  1
  O  O72  1  1.00000000  0.50000000  0.81573000  1
  O  O73  1  0.50040800  0.50135700  0.69956800  1
  O  O74  1  0.99369700  0.64150200  0.58338500  1
  O  O75  1  0.69034000  1.00000000  1.00000000  1
  O  O76  1  0.19034000  0.00000000  0.88621000  1
  O  O77  1  0.69034000  1.00000000  0.77241000  1
  O  O78  1  0.19921500  0.99932300  0.66129800  1
  O  O79  1  0.70252800  0.98414500  0.54450900  1
  O  O80  1  0.30966000  0.00000000  1.00000000  1
  O  O81  1  0.80966000  1.00000000  0.88621000  1
  O  O82  1  0.30966000  0.00000000  0.77241000  1
  O  O83  1  0.80184900  0.99853900  0.66123100  1
  O  O84  1  0.29706200  0.98469900  0.54461100  1
