# generated using pymatgen
data_MgTiMnVZnCrFeCoCuNiSb20ClO54
_symmetry_space_group_name_H-M   'P 1'
_cell_length_a   6.65827400
_cell_length_b   9.53549700
_cell_length_c   29.21057400
_cell_angle_alpha   90.26324100
_cell_angle_beta   89.91532200
_cell_angle_gamma   89.98844200
_symmetry_Int_Tables_number   1
_chemical_formula_structural   MgTiMnVZnCrFeCoCuNiSb20ClO54
_chemical_formula_sum
'Mg1 Ti1 Mn1 V1 Zn1 Cr1 Fe1 Co1 Cu1 Ni1 Sb20 Cl1 O54'
_cell_volume   1854.55629437
_cell_formula_units_Z   1
loop_
 _symmetry_equiv_pos_site_id
 _symmetry_equiv_pos_as_xyz
  1  'x, y, z'
loop_
 _atom_site_type_symbol
 _atom_site_label
 _atom_site_symmetry_multiplicity
 _atom_site_fract_x
 _atom_site_fract_y
 _atom_site_fract_z
 _atom_site_occupancy
  Mg  Mg0  1  0.50000000  0.83232000  0.22759000  1
  Ti  Ti1  1  0.49842400  0.99488400  0.34017700  1
  Mn  Mn2  1  0.49547100  0.51321600  0.44991600  1
  V  V3  1  0.50000000  0.50000000  0.00000000  1
  Zn  Zn4  1  0.50000000  0.00000000  0.11379000  1
  Cr  Cr5  1  0.50000000  0.83232000  0.00000000  1
  Fe  Fe6  1  0.00000000  0.33232000  0.00000000  1
  Co  Co7  1  0.99706800  0.99013800  0.44202300  1
  Cu  Cu8  1  0.00000000  0.66768000  0.22759000  1
  Ni  Ni9  1  0.99581800  0.66863100  0.44218200  1
  Sb  Sb10  1  0.00000000  0.00000000  0.00000000  1
  Sb  Sb11  1  0.00000000  0.00000000  0.22759000  1
  Sb  Sb12  1  0.00000000  0.50000000  0.11379000  1
  Sb  Sb13  1  0.50000000  0.50000000  0.22759000  1
  Sb  Sb14  1  0.99923100  0.49629800  0.33931800  1
  Sb  Sb15  1  0.50000000  0.33232000  0.11379000  1
  Sb  Sb16  1  0.00000000  0.33232000  0.22759000  1
  Sb  Sb17  1  0.49836900  0.33303800  0.34414600  1
  Sb  Sb18  1  0.99781700  0.38443800  0.46716400  1
  Sb  Sb19  1  0.00000000  0.83232000  0.11379000  1
  Sb  Sb20  1  0.99864900  0.84065200  0.33843100  1
  Sb  Sb21  1  0.49560000  0.83088700  0.45571400  1
  Sb  Sb22  1  0.50000000  0.16768000  0.00000000  1
  Sb  Sb23  1  0.00000000  0.16768000  0.11379000  1
  Sb  Sb24  1  0.50000000  0.16768000  0.22759000  1
  Sb  Sb25  1  0.99773100  0.15725800  0.36727700  1
  Sb  Sb26  1  0.49898000  0.18832600  0.45819800  1
  Sb  Sb27  1  0.00000000  0.66768000  0.00000000  1
  Sb  Sb28  1  0.50000000  0.66768000  0.11379000  1
  Sb  Sb29  1  0.49897400  0.67745300  0.33869500  1
  Cl  Cl30  1  0.49365900  0.50110000  0.52597600  1
  O  O31  1  0.00000000  0.17164000  0.04494000  1
  O  O32  1  0.50000000  0.17164000  0.15874000  1
  O  O33  1  0.00019600  0.15525700  0.27065200  1
  O  O34  1  0.50001400  0.16750200  0.38631100  1
  O  O35  1  0.50000000  0.17164000  0.06885000  1
  O  O36  1  0.00000000  0.17164000  0.18264000  1
  O  O37  1  0.49946200  0.17063500  0.29778800  1
  O  O38  1  0.99545300  0.18732400  0.44848600  1
  O  O39  1  0.69747000  0.67164000  0.00000000  1
  O  O40  1  0.19747000  0.67164000  0.11379000  1
  O  O41  1  0.69747000  0.67164000  0.22759000  1
  O  O42  1  0.18551700  0.66891100  0.33805400  1
  O  O43  1  0.69332300  0.65772800  0.44852200  1
  O  O44  1  0.30253000  0.67164000  0.00000000  1
  O  O45  1  0.80253000  0.67164000  0.11379000  1
  O  O46  1  0.30253000  0.67164000  0.22759000  1
  O  O47  1  0.81332100  0.66865200  0.33787300  1
  O  O48  1  0.29654600  0.65713000  0.44859100  1
  O  O49  1  0.69747000  0.32836000  0.00000000  1
  O  O50  1  0.19747000  0.32836000  0.11379000  1
  O  O51  1  0.69747000  0.32836000  0.22759000  1
  O  O52  1  0.19912900  0.33628800  0.33782800  1
  O  O53  1  0.68601400  0.36282000  0.44600700  1
  O  O54  1  0.30253000  0.32836000  0.00000000  1
  O  O55  1  0.80253000  0.32836000  0.11379000  1
  O  O56  1  0.30253000  0.32836000  0.22759000  1
  O  O57  1  0.79779200  0.33776400  0.33777300  1
  O  O58  1  0.30848400  0.36099100  0.44590100  1
  O  O59  1  0.00000000  0.82836000  0.04494000  1
  O  O60  1  0.50000000  0.82836000  0.15874000  1
  O  O61  1  0.00021600  0.84468700  0.27066400  1
  O  O62  1  0.49575900  0.84638100  0.38543600  1
  O  O63  1  0.50000000  0.82836000  0.06885000  1
  O  O64  1  0.00000000  0.82836000  0.18264000  1
  O  O65  1  0.49829800  0.85747200  0.29777400  1
  O  O66  1  0.99724000  0.83171600  0.40662700  1
  O  O67  1  0.00000000  0.50000000  0.04332000  1
  O  O68  1  0.50000000  0.50000000  0.15711000  1
  O  O69  1  0.00049200  0.49998000  0.27169600  1
  O  O70  1  0.49486300  0.50556400  0.38310200  1
  O  O71  1  0.50000000  0.50000000  0.07048000  1
  O  O72  1  0.00000000  0.50000000  0.18427000  1
  O  O73  1  0.49831100  0.48615700  0.29622200  1
  O  O74  1  0.99777100  0.49462100  0.40648300  1
  O  O75  1  0.69034000  0.00000000  0.00000000  1
  O  O76  1  0.19034000  0.00000000  0.11379000  1
  O  O77  1  0.69034000  0.00000000  0.22759000  1
  O  O78  1  0.19903000  0.99890500  0.34091800  1
  O  O79  1  0.72870700  0.99180300  0.44920900  1
  O  O80  1  0.30966000  0.00000000  1.00000000  1
  O  O81  1  0.80966000  0.00000000  0.11379000  1
  O  O82  1  0.30966000  0.00000000  0.22759000  1
  O  O83  1  0.79762300  0.99793700  0.34100500  1
  O  O84  1  0.26593500  0.99370200  0.44873100  1
