# generated using pymatgen
data_MgTiMnVZnCrFeCoCuNiSb20ClO54
_symmetry_space_group_name_H-M   'P 1'
_cell_length_a   6.65003700
_cell_length_b   9.61935900
_cell_length_c   29.40992300
_cell_angle_alpha   89.99132800
_cell_angle_beta   89.99794400
_cell_angle_gamma   89.99827800
_symmetry_Int_Tables_number   1
_chemical_formula_structural   MgTiMnVZnCrFeCoCuNiSb20ClO54
_chemical_formula_sum
'Mg1 Ti1 Mn1 V1 Zn1 Cr1 Fe1 Co1 Cu1 Ni1 Sb20 Cl1 O54'
_cell_volume   1881.32608373
_cell_formula_units_Z   1
loop_
 _symmetry_equiv_pos_site_id
 _symmetry_equiv_pos_as_xyz
  1  'x, y, z'
loop_
 _atom_site_type_symbol
 _atom_site_label
 _atom_site_symmetry_multiplicity
 _atom_site_fract_x
 _atom_site_fract_y
 _atom_site_fract_z
 _atom_site_occupancy
  Mg  Mg0  1  0.99667400  0.65964600  0.55733600  1
  Ti  Ti1  1  0.50009800  0.32410900  0.66317600  1
  Mn  Mn2  1  0.49789000  0.48642600  0.54787900  1
  V  V3  1  0.50000000  0.83232000  0.00000000  1
  Zn  Zn4  1  0.00139300  0.82975400  0.66089500  1
  Cr  Cr5  1  1.00000000  0.16768000  0.88621000  1
  Fe  Fe6  1  0.49673200  0.17298100  0.55338400  1
  Co  Co7  1  0.50000000  0.33232000  0.88621000  1
  Cu  Cu8  1  0.50000000  0.16768000  0.77241000  1
  Ni  Ni9  1  0.99963200  0.17915500  0.66437900  1
  Sb  Sb10  1  0.00000000  0.00000000  0.00000000  1
  Sb  Sb11  1  0.50000000  0.00000000  0.88621000  1
  Sb  Sb12  1  0.00000000  1.00000000  0.77241000  1
  Sb  Sb13  1  0.49904600  0.00791600  0.65640500  1
  Sb  Sb14  1  0.99618000  0.01853300  0.58253000  1
  Sb  Sb15  1  0.50000000  0.50000000  0.00000000  1
  Sb  Sb16  1  0.00000000  0.50000000  0.88621000  1
  Sb  Sb17  1  0.50000000  0.50000000  0.77241000  1
  Sb  Sb18  1  0.99984800  0.48964400  0.65732800  1
  Sb  Sb19  1  0.00000000  0.66768000  0.00000000  1
  Sb  Sb20  1  0.50000000  0.66768000  0.88621000  1
  Sb  Sb21  1  0.00000000  0.66768000  0.77241000  1
  Sb  Sb22  1  0.50025300  0.65369000  0.65492700  1
  Sb  Sb23  1  0.50000000  0.16768000  0.00000000  1
  Sb  Sb24  1  0.00000000  0.83232000  0.88621000  1
  Sb  Sb25  1  0.50000000  0.83232000  0.77241000  1
  Sb  Sb26  1  0.49540800  0.79765200  0.54120700  1
  Sb  Sb27  1  1.00000000  0.33232000  0.00000000  1
  Sb  Sb28  1  1.00000000  0.33232000  0.77241000  1
  Sb  Sb29  1  0.99759700  0.33516700  0.54305300  1
  Cl  Cl30  1  0.49620300  0.49672500  0.47230600  1
  O  O31  1  0.00000000  0.82836000  0.95506000  1
  O  O32  1  0.50000000  0.82836000  0.84126000  1
  O  O33  1  0.00019600  0.84474300  0.72934800  1
  O  O34  1  0.49966200  0.82108200  0.61215700  1
  O  O35  1  0.50000000  0.82836000  0.93115000  1
  O  O36  1  0.00000000  0.82836000  0.81736000  1
  O  O37  1  0.49962300  0.82420800  0.70061000  1
  O  O38  1  0.00360900  0.82353400  0.59136500  1
  O  O39  1  0.69747000  0.32836000  0.00000000  1
  O  O40  1  0.19747000  0.32836000  0.88621000  1
  O  O41  1  0.69747000  0.32836000  0.77241000  1
  O  O42  1  0.20174400  0.34027500  0.66684200  1
  O  O43  1  0.67767500  0.33797000  0.54762500  1
  O  O44  1  0.30253000  0.32836000  0.00000000  1
  O  O45  1  0.80253000  0.32836000  0.88621000  1
  O  O46  1  0.30253000  0.32836000  0.77241000  1
  O  O47  1  0.79740200  0.34063500  0.66749700  1
  O  O48  1  0.31681100  0.33982400  0.54847500  1
  O  O49  1  0.69747000  0.67164000  0.00000000  1
  O  O50  1  0.19747000  0.67164000  0.88621000  1
  O  O51  1  0.69747000  0.67164000  0.77241000  1
  O  O52  1  0.19535800  0.65313500  0.66049200  1
  O  O53  1  0.69495900  0.64097800  0.54807500  1
  O  O54  1  0.30253000  0.67164000  0.00000000  1
  O  O55  1  0.80253000  0.67164000  0.88621000  1
  O  O56  1  0.30253000  0.67164000  0.77241000  1
  O  O57  1  0.80518300  0.65376800  0.66082600  1
  O  O58  1  0.29918200  0.63895500  0.54870000  1
  O  O59  1  1.00000000  0.17164000  0.95506000  1
  O  O60  1  0.50000000  0.17164000  0.84126000  1
  O  O61  1  0.00021600  0.15531300  0.72933600  1
  O  O62  1  0.50015200  0.18401200  0.61751100  1
  O  O63  1  0.50000000  0.17164000  0.93115000  1
  O  O64  1  1.00000000  0.17164000  0.81736000  1
  O  O65  1  0.49997300  0.16677200  0.70276500  1
  O  O66  1  0.99435600  0.21524100  0.59817900  1
  O  O67  1  0.00000000  0.50000000  0.95668000  1
  O  O68  1  0.50000000  0.50000000  0.84289000  1
  O  O69  1  0.00049200  0.50002000  0.72830400  1
  O  O70  1  0.50114100  0.48484700  0.61602500  1
  O  O71  1  0.50000000  0.50000000  0.92952000  1
  O  O72  1  0.00000000  0.50000000  0.81573000  1
  O  O73  1  0.49925100  0.50401700  0.70416800  1
  O  O74  1  0.99451700  0.48723800  0.59031600  1
  O  O75  1  0.69034000  1.00000000  0.00000000  1
  O  O76  1  0.19034000  0.00000000  0.88621000  1
  O  O77  1  0.69034000  1.00000000  0.77241000  1
  O  O78  1  0.18690000  0.01086500  0.64835400  1
  O  O79  1  0.73482700  0.03773400  0.54879700  1
  O  O80  1  0.30966000  0.00000000  0.00000000  1
  O  O81  1  0.80966000  1.00000000  0.88621000  1
  O  O82  1  0.30966000  0.00000000  0.77241000  1
  O  O83  1  0.81233600  0.00987300  0.64819500  1
  O  O84  1  0.25734400  0.04240300  0.54865200  1
