# generated using pymatgen
data_MgTiMnVZnCrFeCoCuNiSb20ClO54
_symmetry_space_group_name_H-M   'P 1'
_cell_length_a   6.63521100
_cell_length_b   9.63804400
_cell_length_c   29.64254000
_cell_angle_alpha   89.73054400
_cell_angle_beta   89.99472700
_cell_angle_gamma   89.99137900
_symmetry_Int_Tables_number   1
_chemical_formula_structural   MgTiMnVZnCrFeCoCuNiSb20ClO54
_chemical_formula_sum
'Mg1 Ti1 Mn1 V1 Zn1 Cr1 Fe1 Co1 Cu1 Ni1 Sb20 Cl1 O54'
_cell_volume   1895.63294455
_cell_formula_units_Z   1
loop_
 _symmetry_equiv_pos_site_id
 _symmetry_equiv_pos_as_xyz
  1  'x, y, z'
loop_
 _atom_site_type_symbol
 _atom_site_label
 _atom_site_symmetry_multiplicity
 _atom_site_fract_x
 _atom_site_fract_y
 _atom_site_fract_z
 _atom_site_occupancy
  Mg  Mg0  1  0.50001100  0.48413100  0.44866800  1
  Ti  Ti1  1  1.00000000  0.33232000  0.22759000  1
  Mn  Mn2  1  0.99990500  0.17175100  0.33667100  1
  V  V3  1  1.00000000  0.33232000  0.00000000  1
  Zn  Zn4  1  0.49968800  0.15752600  0.44981200  1
  Cr  Cr5  1  0.50000000  0.16768000  0.00000000  1
  Fe  Fe6  1  0.00037100  0.65337200  0.43685900  1
  Co  Co7  1  0.99976700  0.48893200  0.33637300  1
  Cu  Cu8  1  0.50000000  0.16768000  0.22759000  1
  Ni  Ni9  1  0.00000000  0.66768000  0.00000000  1
  Sb  Sb10  1  0.00000000  0.00000000  0.00000000  1
  Sb  Sb11  1  0.50000000  1.00000000  0.11379000  1
  Sb  Sb12  1  1.00000000  0.00000000  0.22759000  1
  Sb  Sb13  1  0.49998100  0.00016000  0.33963500  1
  Sb  Sb14  1  0.00026400  0.00416900  0.45339000  1
  Sb  Sb15  1  0.50000000  0.50000000  0.00000000  1
  Sb  Sb16  1  0.00000000  0.50000000  0.11379000  1
  Sb  Sb17  1  0.50000000  0.50000000  0.22759000  1
  Sb  Sb18  1  0.50000000  0.33232000  0.11379000  1
  Sb  Sb19  1  0.49982600  0.32177700  0.33838800  1
  Sb  Sb20  1  0.00001900  0.32803000  0.44624900  1
  Sb  Sb21  1  0.50000000  0.83232000  0.00000000  1
  Sb  Sb22  1  1.00000000  0.83232000  0.11379000  1
  Sb  Sb23  1  0.50000000  0.83232000  0.22759000  1
  Sb  Sb24  1  0.99986600  0.83263300  0.34184700  1
  Sb  Sb25  1  0.50025700  0.81313100  0.45614900  1
  Sb  Sb26  1  1.00000000  0.16768000  0.11379000  1
  Sb  Sb27  1  0.50000000  0.66768000  0.11379000  1
  Sb  Sb28  1  1.00000000  0.66768000  0.22759000  1
  Sb  Sb29  1  0.49973200  0.65930000  0.34343200  1
  Cl  Cl30  1  0.50048000  0.79873200  0.53583800  1
  O  O31  1  1.00000000  0.17164000  0.04494000  1
  O  O32  1  0.50000000  0.17164000  0.15874000  1
  O  O33  1  0.00019600  0.15525700  0.27065200  1
  O  O34  1  0.49987000  0.15837600  0.38204900  1
  O  O35  1  0.50000000  0.17164000  0.06885000  1
  O  O36  1  1.00000000  0.17164000  0.18264000  1
  O  O37  1  0.50042300  0.15647100  0.29487900  1
  O  O38  1  0.99972400  0.15874800  0.40423200  1
  O  O39  1  0.69747000  0.67164000  1.00000000  1
  O  O40  1  0.19747000  0.67164000  0.11379000  1
  O  O41  1  0.69747000  0.67164000  0.22759000  1
  O  O42  1  0.19441400  0.66908500  0.33814200  1
  O  O43  1  0.70556600  0.65945600  0.44990600  1
  O  O44  1  0.30253000  0.67164000  0.00000000  1
  O  O45  1  0.80253000  0.67164000  0.11379000  1
  O  O46  1  0.30253000  0.67164000  0.22759000  1
  O  O47  1  0.80552400  0.66900900  0.33824500  1
  O  O48  1  0.29498200  0.65974900  0.44994900  1
  O  O49  1  0.69747000  0.32836000  1.00000000  1
  O  O50  1  0.19747000  0.32836000  0.11379000  1
  O  O51  1  0.69747000  0.32836000  0.22759000  1
  O  O52  1  0.19845400  0.32356500  0.33693000  1
  O  O53  1  0.69650100  0.31909000  0.45605500  1
  O  O54  1  0.30253000  0.32836000  0.00000000  1
  O  O55  1  0.80253000  0.32836000  0.11379000  1
  O  O56  1  0.30253000  0.32836000  0.22759000  1
  O  O57  1  0.80119200  0.32349900  0.33690900  1
  O  O58  1  0.30362000  0.31934600  0.45604600  1
  O  O59  1  1.00000000  0.82836000  0.04494000  1
  O  O60  1  0.50000000  0.82836000  0.15874000  1
  O  O61  1  0.00021600  0.84468700  0.27066400  1
  O  O62  1  0.49939800  0.82946800  0.38352500  1
  O  O63  1  0.50000000  0.82836000  0.06885000  1
  O  O64  1  1.00000000  0.82836000  0.18264000  1
  O  O65  1  0.50012200  0.82710800  0.29653200  1
  O  O66  1  0.00109500  0.83914700  0.40946900  1
  O  O67  1  0.00000000  0.50000000  0.04332000  1
  O  O68  1  0.50000000  0.50000000  0.15711000  1
  O  O69  1  0.00049200  0.49998000  0.27169600  1
  O  O70  1  0.49929100  0.48873600  0.38125900  1
  O  O71  1  0.50000000  0.50000000  0.07048000  1
  O  O72  1  1.00000000  0.50000000  0.18427000  1
  O  O73  1  0.50040700  0.50411300  0.29603900  1
  O  O74  1  0.00015600  0.48562100  0.40266300  1
  O  O75  1  0.69034000  0.00000000  1.00000000  1
  O  O76  1  0.19034000  1.00000000  0.11379000  1
  O  O77  1  0.69034000  0.00000000  0.22759000  1
  O  O78  1  0.19450500  0.99454600  0.33871500  1
  O  O79  1  0.68789400  0.97636500  0.45265400  1
  O  O80  1  0.30966000  1.00000000  0.00000000  1
  O  O81  1  0.80966000  0.00000000  0.11379000  1
  O  O82  1  0.30966000  1.00000000  0.22759000  1
  O  O83  1  0.80533500  0.99434300  0.33874000  1
  O  O84  1  0.31300200  0.97657900  0.45286800  1
