# generated using pymatgen
data_MgTiMnVZnCrFeCoCuNiSb20ClO54
_symmetry_space_group_name_H-M   'P 1'
_cell_length_a   6.79882100
_cell_length_b   9.53031500
_cell_length_c   29.24213500
_cell_angle_alpha   90.14860400
_cell_angle_beta   89.94403900
_cell_angle_gamma   89.92921000
_symmetry_Int_Tables_number   1
_chemical_formula_structural   MgTiMnVZnCrFeCoCuNiSb20ClO54
_chemical_formula_sum
'Mg1 Ti1 Mn1 V1 Zn1 Cr1 Fe1 Co1 Cu1 Ni1 Sb20 Cl1 O54'
_cell_volume   1894.73265278
_cell_formula_units_Z   1
loop_
 _symmetry_equiv_pos_site_id
 _symmetry_equiv_pos_as_xyz
  1  'x, y, z'
loop_
 _atom_site_type_symbol
 _atom_site_label
 _atom_site_symmetry_multiplicity
 _atom_site_fract_x
 _atom_site_fract_y
 _atom_site_fract_z
 _atom_site_occupancy
  Mg  Mg0  1  0.50758800  0.45788300  0.45634300  1
  Ti  Ti1  1  0.52139000  0.83547300  0.45332700  1
  Mn  Mn2  1  0.50009000  0.99678100  0.33986900  1
  V  V3  1  0.97564100  0.66246500  0.42007700  1
  Zn  Zn4  1  0.50000000  0.00000000  0.11379000  1
  Cr  Cr5  1  1.00000000  0.16768000  0.11379000  1
  Fe  Fe6  1  0.50521500  0.15437200  0.44889200  1
  Co  Co7  1  0.00000000  1.00000000  0.22759000  1
  Cu  Cu8  1  1.00000000  0.66768000  0.22759000  1
  Ni  Ni9  1  0.99921300  0.49080600  0.33804500  1
  Sb  Sb10  1  0.00000000  0.00000000  0.00000000  1
  Sb  Sb11  1  0.02163400  0.98783500  0.45750300  1
  Sb  Sb12  1  0.50000000  0.50000000  0.00000000  1
  Sb  Sb13  1  1.00000000  0.50000000  0.11379000  1
  Sb  Sb14  1  0.50000000  0.50000000  0.22759000  1
  Sb  Sb15  1  0.00000000  0.33232000  0.00000000  1
  Sb  Sb16  1  0.50000000  0.33232000  0.11379000  1
  Sb  Sb17  1  0.00000000  0.33232000  0.22759000  1
  Sb  Sb18  1  0.49838500  0.32442300  0.34372400  1
  Sb  Sb19  1  0.00476300  0.33051900  0.45799100  1
  Sb  Sb20  1  0.50000000  0.83232000  0.00000000  1
  Sb  Sb21  1  0.00000000  0.83232000  0.11379000  1
  Sb  Sb22  1  0.50000000  0.83232000  0.22759000  1
  Sb  Sb23  1  0.00115200  0.84051200  0.33503000  1
  Sb  Sb24  1  0.50000000  0.16768000  0.00000000  1
  Sb  Sb25  1  0.50000000  0.16768000  0.22759000  1
  Sb  Sb26  1  0.99910600  0.16632500  0.33955100  1
  Sb  Sb27  1  0.00000000  0.66768000  0.00000000  1
  Sb  Sb28  1  0.50000000  0.66768000  0.11379000  1
  Sb  Sb29  1  0.49783000  0.66611300  0.34630300  1
  Cl  Cl30  1  0.48155200  0.65099000  0.51296700  1
  O  O31  1  0.00000000  0.17164000  0.04494000  1
  O  O32  1  0.50000000  0.17164000  0.15874000  1
  O  O33  1  0.00019600  0.15525700  0.27065200  1
  O  O34  1  0.50102300  0.15358200  0.38341500  1
  O  O35  1  0.50000000  0.17164000  0.06885000  1
  O  O36  1  0.00000000  0.17164000  0.18264000  1
  O  O37  1  0.49913700  0.17110000  0.29541900  1
  O  O38  1  0.00718200  0.15796900  0.41304200  1
  O  O39  1  0.69747000  0.67164000  0.00000000  1
  O  O40  1  0.19747000  0.67164000  0.11379000  1
  O  O41  1  0.69747000  0.67164000  0.22759000  1
  O  O42  1  0.18233800  0.67144000  0.35064700  1
  O  O43  1  0.75756600  0.69139100  0.44682400  1
  O  O44  1  0.30253000  0.67164000  0.00000000  1
  O  O45  1  0.80253000  0.67164000  0.11379000  1
  O  O46  1  0.30253000  0.67164000  0.22759000  1
  O  O47  1  0.81358500  0.67422900  0.35049700  1
  O  O48  1  0.15830400  0.69051600  0.45604800  1
  O  O49  1  0.69747000  0.32836000  0.00000000  1
  O  O50  1  0.19747000  0.32836000  0.11379000  1
  O  O51  1  0.69747000  0.32836000  0.22759000  1
  O  O52  1  0.19428700  0.32605700  0.34099500  1
  O  O53  1  0.69711300  0.29682400  0.45890300  1
  O  O54  1  0.30253000  0.32836000  0.00000000  1
  O  O55  1  0.80253000  0.32836000  0.11379000  1
  O  O56  1  0.30253000  0.32836000  0.22759000  1
  O  O57  1  0.80365500  0.32615000  0.34100600  1
  O  O58  1  0.31235500  0.29923300  0.45825200  1
  O  O59  1  0.00000000  0.82836000  0.04494000  1
  O  O60  1  0.50000000  0.82836000  0.15874000  1
  O  O61  1  0.00021600  0.84468700  0.27066400  1
  O  O62  1  0.48886700  0.82819100  0.39111100  1
  O  O63  1  0.50000000  0.82836000  0.06885000  1
  O  O64  1  0.00000000  0.82836000  0.18264000  1
  O  O65  1  0.49943000  0.83074900  0.29966200  1
  O  O66  1  0.99441700  0.86043700  0.40396400  1
  O  O67  1  0.00000000  0.50000000  0.04332000  1
  O  O68  1  0.50000000  0.50000000  0.15711000  1
  O  O69  1  0.00049200  0.49998000  0.27169600  1
  O  O70  1  0.49710800  0.49113800  0.38842700  1
  O  O71  1  0.50000000  0.50000000  0.07048000  1
  O  O72  1  0.00000000  0.50000000  0.18427000  1
  O  O73  1  0.50001400  0.49562600  0.29955200  1
  O  O74  1  0.99097900  0.47531200  0.40779000  1
  O  O75  1  0.69034000  0.00000000  0.00000000  1
  O  O76  1  0.19034000  0.00000000  0.11379000  1
  O  O77  1  0.69034000  1.00000000  0.22759000  1
  O  O78  1  0.19692300  0.00407300  0.34079200  1
  O  O79  1  0.68794700  0.97991600  0.46075500  1
  O  O80  1  0.30966000  0.00000000  0.00000000  1
  O  O81  1  0.80966000  0.00000000  0.11379000  1
  O  O82  1  0.30966000  0.00000000  0.22759000  1
  O  O83  1  0.80211500  0.00421000  0.34031600  1
  O  O84  1  0.32698600  0.97895000  0.46049800  1
