# generated using pymatgen
data_MgTiMnVZnCrFeCoCuNiSb20ClO54
_symmetry_space_group_name_H-M   'P 1'
_cell_length_a   6.68653900
_cell_length_b   9.48859400
_cell_length_c   29.04801500
_cell_angle_alpha   89.68135100
_cell_angle_beta   90.68778900
_cell_angle_gamma   89.98219800
_symmetry_Int_Tables_number   1
_chemical_formula_structural   MgTiMnVZnCrFeCoCuNiSb20ClO54
_chemical_formula_sum
'Mg1 Ti1 Mn1 V1 Zn1 Cr1 Fe1 Co1 Cu1 Ni1 Sb20 Cl1 O54'
_cell_volume   1842.81469792
_cell_formula_units_Z   1
loop_
 _symmetry_equiv_pos_site_id
 _symmetry_equiv_pos_as_xyz
  1  'x, y, z'
loop_
 _atom_site_type_symbol
 _atom_site_label
 _atom_site_symmetry_multiplicity
 _atom_site_fract_x
 _atom_site_fract_y
 _atom_site_fract_z
 _atom_site_occupancy
  Mg  Mg0  1  0.50256600  0.49393700  0.45019900  1
  Ti  Ti1  1  0.00279600  0.82893600  0.34113300  1
  Mn  Mn2  1  0.50000000  0.50000000  0.00000000  1
  V  V3  1  0.00000000  0.33232000  1.00000000  1
  Zn  Zn4  1  0.00000000  0.33232000  0.22759000  1
  Cr  Cr5  1  0.50000000  0.50000000  0.22759000  1
  Fe  Fe6  1  0.00000000  0.50000000  0.11379000  1
  Co  Co7  1  0.50909900  0.99663600  0.34439000  1
  Cu  Cu8  1  1.00000000  0.16768000  0.11379000  1
  Ni  Ni9  1  0.50000000  0.33232000  0.11379000  1
  Sb  Sb10  1  0.00000000  0.00000000  0.00000000  1
  Sb  Sb11  1  0.50000000  0.00000000  0.11379000  1
  Sb  Sb12  1  1.00000000  1.00000000  0.22759000  1
  Sb  Sb13  1  0.99611000  0.99054100  0.43255500  1
  Sb  Sb14  1  0.00425600  0.50061300  0.34274900  1
  Sb  Sb15  1  0.50778200  0.32500200  0.33901800  1
  Sb  Sb16  1  0.01977400  0.31795200  0.47169000  1
  Sb  Sb17  1  0.50000000  0.83232000  1.00000000  1
  Sb  Sb18  1  1.00000000  0.83232000  0.11379000  1
  Sb  Sb19  1  0.50000000  0.83232000  0.22759000  1
  Sb  Sb20  1  0.50550200  0.80984100  0.46092800  1
  Sb  Sb21  1  0.50000000  0.16768000  1.00000000  1
  Sb  Sb22  1  0.50000000  0.16768000  0.22759000  1
  Sb  Sb23  1  0.00597300  0.15667300  0.33772500  1
  Sb  Sb24  1  0.50323400  0.17806900  0.45809200  1
  Sb  Sb25  1  0.00000000  0.66768000  1.00000000  1
  Sb  Sb26  1  0.50000000  0.66768000  0.11379000  1
  Sb  Sb27  1  1.00000000  0.66768000  0.22759000  1
  Sb  Sb28  1  0.50671400  0.67138200  0.34139900  1
  Sb  Sb29  1  0.01929200  0.66898700  0.47128700  1
  Cl  Cl30  1  0.20773400  0.48190800  0.53471300  1
  O  O31  1  1.00000000  0.17164000  0.04494000  1
  O  O32  1  0.50000000  0.17164000  0.15874000  1
  O  O33  1  0.00019600  0.15525700  0.27065200  1
  O  O34  1  0.52492200  0.16796000  0.38595500  1
  O  O35  1  0.50000000  0.17164000  0.06885000  1
  O  O36  1  1.00000000  0.17164000  0.18264000  1
  O  O37  1  0.49886200  0.15422600  0.29727800  1
  O  O38  1  0.97761900  0.18215400  0.40552000  1
  O  O39  1  0.69747000  0.67164000  1.00000000  1
  O  O40  1  0.19747000  0.67164000  0.11379000  1
  O  O41  1  0.69747000  0.67164000  0.22759000  1
  O  O42  1  0.20660900  0.69147700  0.33690500  1
  O  O43  1  0.69852500  0.65040100  0.46392600  1
  O  O44  1  0.30253000  0.67164000  1.00000000  1
  O  O45  1  0.80253000  0.67164000  0.11379000  1
  O  O46  1  0.30253000  0.67164000  0.22759000  1
  O  O47  1  0.80555700  0.68767100  0.33301000  1
  O  O48  1  0.30723900  0.65689000  0.44472400  1
  O  O49  1  0.69747000  0.32836000  1.00000000  1
  O  O50  1  0.19747000  0.32836000  0.11379000  1
  O  O51  1  0.69747000  0.32836000  0.22759000  1
  O  O52  1  0.20498800  0.31593000  0.33592900  1
  O  O53  1  0.69693700  0.33702200  0.46324900  1
  O  O54  1  0.30253000  0.32836000  1.00000000  1
  O  O55  1  0.80253000  0.32836000  0.11379000  1
  O  O56  1  0.30253000  0.32836000  0.22759000  1
  O  O57  1  0.80901600  0.31851300  0.33284100  1
  O  O58  1  0.30514500  0.33073600  0.44318900  1
  O  O59  1  1.00000000  0.82836000  0.04494000  1
  O  O60  1  0.50000000  0.82836000  0.15874000  1
  O  O61  1  0.00021600  0.84468700  0.27066400  1
  O  O62  1  0.52462100  0.82577000  0.38800400  1
  O  O63  1  0.50000000  0.82836000  0.06885000  1
  O  O64  1  0.00000000  0.82836000  0.18264000  1
  O  O65  1  0.50052500  0.83638400  0.29651700  1
  O  O66  1  0.98577600  0.79954700  0.40634700  1
  O  O67  1  1.00000000  0.50000000  0.04332000  1
  O  O68  1  0.50000000  0.50000000  0.15711000  1
  O  O69  1  0.00049200  0.49998000  0.27169600  1
  O  O70  1  0.53039000  0.49580600  0.38080900  1
  O  O71  1  0.50000000  0.50000000  0.07048000  1
  O  O72  1  1.00000000  0.50000000  0.18427000  1
  O  O73  1  0.49568800  0.50199600  0.29601700  1
  O  O74  1  0.99146600  0.49343900  0.43530900  1
  O  O75  1  0.69034000  0.00000000  1.00000000  1
  O  O76  1  0.19034000  0.00000000  0.11379000  1
  O  O77  1  0.69034000  0.00000000  0.22759000  1
  O  O78  1  0.19402000  0.99459100  0.34923800  1
  O  O79  1  0.75201300  0.98838600  0.46368000  1
  O  O80  1  0.30966000  0.00000000  1.00000000  1
  O  O81  1  0.80966000  0.00000000  0.11379000  1
  O  O82  1  0.30966000  1.00000000  0.22759000  1
  O  O83  1  0.81839500  0.99292800  0.34434000  1
  O  O84  1  0.24593200  0.99529500  0.46227900  1
