# generated using pymatgen
data_MgTiMnVZnCrFeCoCuNiSb20ClO54
_symmetry_space_group_name_H-M   'P 1'
_cell_length_a   6.64134500
_cell_length_b   9.56585700
_cell_length_c   28.69604900
_cell_angle_alpha   89.52473200
_cell_angle_beta   89.95317400
_cell_angle_gamma   89.98889000
_symmetry_Int_Tables_number   1
_chemical_formula_structural   MgTiMnVZnCrFeCoCuNiSb20ClO54
_chemical_formula_sum
'Mg1 Ti1 Mn1 V1 Zn1 Cr1 Fe1 Co1 Cu1 Ni1 Sb20 Cl1 O54'
_cell_volume   1823.00112549
_cell_formula_units_Z   1
loop_
 _symmetry_equiv_pos_site_id
 _symmetry_equiv_pos_as_xyz
  1  'x, y, z'
loop_
 _atom_site_type_symbol
 _atom_site_label
 _atom_site_symmetry_multiplicity
 _atom_site_fract_x
 _atom_site_fract_y
 _atom_site_fract_z
 _atom_site_occupancy
  Mg  Mg0  1  0.49779200  0.51104700  0.54416200  1
  Ti  Ti1  1  0.00000000  0.00000000  0.77241000  1
  Mn  Mn2  1  0.99598700  0.33502400  0.55632200  1
  V  V3  1  0.00000000  0.66768000  0.00000000  1
  Zn  Zn4  1  0.00000000  0.66768000  0.77241000  1
  Cr  Cr5  1  0.00000000  0.83232000  0.88621000  1
  Fe  Fe6  1  0.49835100  0.67202500  0.65409600  1
  Co  Co7  1  0.00000000  0.00000000  0.00000000  1
  Cu  Cu8  1  0.50000000  0.33232000  0.88621000  1
  Ni  Ni9  1  0.50000000  0.50000000  1.00000000  1
  Sb  Sb10  1  0.50000000  0.00000000  0.88621000  1
  Sb  Sb11  1  0.49999700  0.99482400  0.65059400  1
  Sb  Sb12  1  0.99754300  0.97598900  0.53862200  1
  Sb  Sb13  1  0.00000000  0.50000000  0.88621000  1
  Sb  Sb14  1  0.50000000  0.50000000  0.77241000  1
  Sb  Sb15  1  0.99814400  0.51099400  0.65941600  1
  Sb  Sb16  1  0.50000000  0.66768000  0.88621000  1
  Sb  Sb17  1  0.99872200  0.64860100  0.53560500  1
  Sb  Sb18  1  0.50000000  0.16768000  1.00000000  1
  Sb  Sb19  1  0.00000000  0.16768000  0.88621000  1
  Sb  Sb20  1  0.50000000  0.16768000  0.77241000  1
  Sb  Sb21  1  0.00216100  0.16582100  0.65181100  1
  Sb  Sb22  1  0.49545900  0.19614700  0.52948500  1
  Sb  Sb23  1  0.50000000  0.83232000  1.00000000  1
  Sb  Sb24  1  0.50000000  0.83232000  0.77241000  1
  Sb  Sb25  1  0.99801300  0.82880500  0.66005300  1
  Sb  Sb26  1  0.49816000  0.83561000  0.53309900  1
  Sb  Sb27  1  0.00000000  0.33232000  0.00000000  1
  Sb  Sb28  1  0.00000000  0.33232000  0.77241000  1
  Sb  Sb29  1  0.49941500  0.34737800  0.65413500  1
  Cl  Cl30  1  0.48846700  0.46886300  0.46321000  1
  O  O31  1  0.00000000  0.82836000  0.95506000  1
  O  O32  1  0.50000000  0.82836000  0.84126000  1
  O  O33  1  0.00019600  0.84474300  0.72934800  1
  O  O34  1  0.50195600  0.83031400  0.61049100  1
  O  O35  1  0.50000000  0.82836000  0.93115000  1
  O  O36  1  0.00000000  0.82836000  0.81736000  1
  O  O37  1  0.49986800  0.84216400  0.70163900  1
  O  O38  1  0.99324300  0.82484600  0.59010900  1
  O  O39  1  0.69747000  0.32836000  0.00000000  1
  O  O40  1  0.19747000  0.32836000  0.88621000  1
  O  O41  1  0.69747000  0.32836000  0.77241000  1
  O  O42  1  0.19748800  0.35292700  0.66007800  1
  O  O43  1  0.71774000  0.34053100  0.54824000  1
  O  O44  1  0.30253000  0.32836000  1.00000000  1
  O  O45  1  0.80253000  0.32836000  0.88621000  1
  O  O46  1  0.30253000  0.32836000  0.77241000  1
  O  O47  1  0.80169900  0.35018300  0.66034500  1
  O  O48  1  0.27552700  0.34102000  0.55038900  1
  O  O49  1  0.69747000  0.67164000  0.00000000  1
  O  O50  1  0.19747000  0.67164000  0.88621000  1
  O  O51  1  0.69747000  0.67164000  0.77241000  1
  O  O52  1  0.19445100  0.67050300  0.66175000  1
  O  O53  1  0.69853500  0.67630300  0.54815100  1
  O  O54  1  0.30253000  0.67164000  1.00000000  1
  O  O55  1  0.80253000  0.67164000  0.88621000  1
  O  O56  1  0.30253000  0.67164000  0.77241000  1
  O  O57  1  0.80211200  0.67051100  0.66281700  1
  O  O58  1  0.29691800  0.67693500  0.54936900  1
  O  O59  1  0.00000000  0.17164000  0.95506000  1
  O  O60  1  0.50000000  0.17164000  0.84126000  1
  O  O61  1  0.00021600  0.15531300  0.72933600  1
  O  O62  1  0.49913400  0.17696700  0.61269200  1
  O  O63  1  0.50000000  0.17164000  0.93115000  1
  O  O64  1  0.00000000  0.17164000  0.81736000  1
  O  O65  1  0.49930900  0.17047200  0.70019000  1
  O  O66  1  0.99601600  0.15128400  0.57685100  1
  O  O67  1  0.00000000  0.50000000  0.95668000  1
  O  O68  1  0.50000000  0.50000000  0.84289000  1
  O  O69  1  0.00049200  0.50002000  0.72830400  1
  O  O70  1  0.50131800  0.50957800  0.61439800  1
  O  O71  1  0.50000000  0.50000000  0.92952000  1
  O  O72  1  0.00000000  0.50000000  0.81573000  1
  O  O73  1  0.49892800  0.49824200  0.70353800  1
  O  O74  1  0.99147200  0.50910700  0.59054000  1
  O  O75  1  0.69034000  1.00000000  0.00000000  1
  O  O76  1  0.19034000  0.00000000  0.88621000  1
  O  O77  1  0.69034000  1.00000000  0.77241000  1
  O  O78  1  0.19765200  0.98708000  0.65742100  1
  O  O79  1  0.69261000  0.00727200  0.55108700  1
  O  O80  1  0.30966000  0.00000000  1.00000000  1
  O  O81  1  0.80966000  1.00000000  0.88621000  1
  O  O82  1  0.30966000  0.00000000  0.77241000  1
  O  O83  1  0.80278300  0.98991600  0.65769200  1
  O  O84  1  0.30189200  0.00590300  0.55166500  1
