# generated using pymatgen
data_MgTiMnVZnCrFeCoCuNiSb20ClO54
_symmetry_space_group_name_H-M   'P 1'
_cell_length_a   6.70475500
_cell_length_b   9.47235100
_cell_length_c   29.42202000
_cell_angle_alpha   89.81943700
_cell_angle_beta   89.65230700
_cell_angle_gamma   89.98720900
_symmetry_Int_Tables_number   1
_chemical_formula_structural   MgTiMnVZnCrFeCoCuNiSb20ClO54
_chemical_formula_sum
'Mg1 Ti1 Mn1 V1 Zn1 Cr1 Fe1 Co1 Cu1 Ni1 Sb20 Cl1 O54'
_cell_volume   1868.54266869
_cell_formula_units_Z   1
loop_
 _symmetry_equiv_pos_site_id
 _symmetry_equiv_pos_as_xyz
  1  'x, y, z'
loop_
 _atom_site_type_symbol
 _atom_site_label
 _atom_site_symmetry_multiplicity
 _atom_site_fract_x
 _atom_site_fract_y
 _atom_site_fract_z
 _atom_site_occupancy
  Mg  Mg0  1  0.49514200  0.50263700  0.54747400  1
  Ti  Ti1  1  0.50476600  0.83794500  0.55859400  1
  Mn  Mn2  1  0.51000500  0.17167200  0.55604600  1
  V  V3  1  0.00000000  0.66768000  0.77241000  1
  Zn  Zn4  1  0.50000000  0.16768000  0.00000000  1
  Cr  Cr5  1  0.00338800  0.84369800  0.66073200  1
  Fe  Fe6  1  0.00000000  0.00000000  0.00000000  1
  Co  Co7  1  0.50000000  0.50000000  0.77241000  1
  Cu  Cu8  1  0.50711100  0.00299900  0.66195200  1
  Ni  Ni9  1  0.50000000  0.66768000  0.88621000  1
  Sb  Sb10  1  0.50000000  1.00000000  0.88621000  1
  Sb  Sb11  1  0.00000000  0.00000000  0.77241000  1
  Sb  Sb12  1  0.00647600  0.99818300  0.54483500  1
  Sb  Sb13  1  0.50000000  0.50000000  0.00000000  1
  Sb  Sb14  1  0.00000000  0.50000000  0.88621000  1
  Sb  Sb15  1  0.00758500  0.51075600  0.65773200  1
  Sb  Sb16  1  0.00000000  0.66768000  0.00000000  1
  Sb  Sb17  1  0.50683500  0.67069800  0.66253700  1
  Sb  Sb18  1  0.00187500  0.68362100  0.54129900  1
  Sb  Sb19  1  0.00000000  0.16768000  0.88621000  1
  Sb  Sb20  1  0.50000000  0.16768000  0.77241000  1
  Sb  Sb21  1  0.00503200  0.15248400  0.65635200  1
  Sb  Sb22  1  0.50000000  0.83232000  0.00000000  1
  Sb  Sb23  1  0.00000000  0.83232000  0.88621000  1
  Sb  Sb24  1  0.50000000  0.83232000  0.77241000  1
  Sb  Sb25  1  1.00000000  0.33232000  0.00000000  1
  Sb  Sb26  1  0.50000000  0.33232000  0.88621000  1
  Sb  Sb27  1  0.00000000  0.33232000  0.77241000  1
  Sb  Sb28  1  0.50654200  0.33341900  0.65840100  1
  Sb  Sb29  1  0.02032400  0.33110100  0.53842500  1
  Cl  Cl30  1  0.27137000  0.50392700  0.47871200  1
  O  O31  1  0.00000000  0.82836000  0.95506000  1
  O  O32  1  0.50000000  0.82836000  0.84126000  1
  O  O33  1  0.00019600  0.84474300  0.72934800  1
  O  O34  1  0.52471100  0.83304000  0.62051800  1
  O  O35  1  0.50000000  0.82836000  0.93115000  1
  O  O36  1  0.00000000  0.82836000  0.81736000  1
  O  O37  1  0.50078400  0.83379100  0.70573900  1
  O  O38  1  0.98414900  0.84081400  0.59232800  1
  O  O39  1  0.69747000  0.32836000  1.00000000  1
  O  O40  1  0.19747000  0.32836000  0.88621000  1
  O  O41  1  0.69747000  0.32836000  0.77241000  1
  O  O42  1  0.19731500  0.32962600  0.66022200  1
  O  O43  1  0.68790000  0.31972900  0.54525300  1
  O  O44  1  0.30253000  0.32836000  0.00000000  1
  O  O45  1  0.80253000  0.32836000  0.88621000  1
  O  O46  1  0.30253000  0.32836000  0.77241000  1
  O  O47  1  0.81642400  0.33114400  0.66065900  1
  O  O48  1  0.31589200  0.31372400  0.55709900  1
  O  O49  1  0.69747000  0.67164000  1.00000000  1
  O  O50  1  0.19747000  0.67164000  0.88621000  1
  O  O51  1  0.69747000  0.67164000  0.77241000  1
  O  O52  1  0.20150900  0.67871000  0.66029800  1
  O  O53  1  0.68191600  0.68987500  0.54308100  1
  O  O54  1  0.30253000  0.67164000  0.00000000  1
  O  O55  1  0.80253000  0.67164000  0.88621000  1
  O  O56  1  0.30253000  0.67164000  0.77241000  1
  O  O57  1  0.81267800  0.67622900  0.66198800  1
  O  O58  1  0.30617200  0.70657000  0.55475500  1
  O  O59  1  0.00000000  0.17164000  0.95506000  1
  O  O60  1  0.50000000  0.17164000  0.84126000  1
  O  O61  1  0.00021600  0.15531300  0.72933600  1
  O  O62  1  0.52179400  0.16499000  0.61834200  1
  O  O63  1  0.50000000  0.17164000  0.93115000  1
  O  O64  1  0.00000000  0.17164000  0.81736000  1
  O  O65  1  0.49923500  0.17307200  0.70528900  1
  O  O66  1  0.99344700  0.16622800  0.58867000  1
  O  O67  1  0.00000000  0.50000000  0.95668000  1
  O  O68  1  0.50000000  0.50000000  0.84289000  1
  O  O69  1  0.00049200  0.50002000  0.72830400  1
  O  O70  1  0.51044500  0.50789200  0.61778700  1
  O  O71  1  0.50000000  0.50000000  0.92952000  1
  O  O72  1  0.00000000  0.50000000  0.81573000  1
  O  O73  1  0.50332000  0.49810900  0.70458300  1
  O  O74  1  0.00279800  0.50507700  0.58411500  1
  O  O75  1  0.69034000  0.00000000  1.00000000  1
  O  O76  1  0.19034000  1.00000000  0.88621000  1
  O  O77  1  0.69034000  0.00000000  0.77241000  1
  O  O78  1  0.19710100  0.99492300  0.65830000  1
  O  O79  1  0.68649300  0.01119300  0.54655200  1
  O  O80  1  0.30966000  1.00000000  0.00000000  1
  O  O81  1  0.80966000  0.00000000  0.88621000  1
  O  O82  1  0.30966000  1.00000000  0.77241000  1
  O  O83  1  0.81294600  0.99648900  0.66204300  1
  O  O84  1  0.32444500  0.01020700  0.54981200  1
