# generated using pymatgen
data_MgTiMnVZnCrFeCoCuNiSb20ClO54
_symmetry_space_group_name_H-M   'P 1'
_cell_length_a   6.63077700
_cell_length_b   9.54653900
_cell_length_c   28.56999600
_cell_angle_alpha   89.88469300
_cell_angle_beta   89.96419900
_cell_angle_gamma   89.97886500
_symmetry_Int_Tables_number   1
_chemical_formula_structural   MgTiMnVZnCrFeCoCuNiSb20ClO54
_chemical_formula_sum
'Mg1 Ti1 Mn1 V1 Zn1 Cr1 Fe1 Co1 Cu1 Ni1 Sb20 Cl1 O54'
_cell_volume   1808.50435729
_cell_formula_units_Z   1
loop_
 _symmetry_equiv_pos_site_id
 _symmetry_equiv_pos_as_xyz
  1  'x, y, z'
loop_
 _atom_site_type_symbol
 _atom_site_label
 _atom_site_symmetry_multiplicity
 _atom_site_fract_x
 _atom_site_fract_y
 _atom_site_fract_z
 _atom_site_occupancy
  Mg  Mg0  1  0.49588500  0.50400600  0.45846400  1
  Ti  Ti1  1  0.50000000  0.33232000  0.11379000  1
  Mn  Mn2  1  1.00000000  0.16768000  0.11379000  1
  V  V3  1  0.50000000  0.00000000  0.11379000  1
  Zn  Zn4  1  0.50000000  0.50000000  0.22759000  1
  Cr  Cr5  1  0.00000000  0.66768000  1.00000000  1
  Fe  Fe6  1  0.99946300  0.17644200  0.33987400  1
  Co  Co7  1  1.00000000  0.50000000  0.11379000  1
  Cu  Cu8  1  0.99916000  0.82967700  0.33611800  1
  Ni  Ni9  1  1.00000000  0.66768000  0.22759000  1
  Sb  Sb10  1  0.00000000  0.00000000  0.00000000  1
  Sb  Sb11  1  1.00000000  0.00000000  0.22759000  1
  Sb  Sb12  1  0.50033600  0.00270300  0.35190400  1
  Sb  Sb13  1  0.99884200  0.99489900  0.42023800  1
  Sb  Sb14  1  0.50000000  0.50000000  1.00000000  1
  Sb  Sb15  1  0.99912800  0.50484200  0.34140400  1
  Sb  Sb16  1  0.00000000  0.33232000  1.00000000  1
  Sb  Sb17  1  1.00000000  0.33232000  0.22759000  1
  Sb  Sb18  1  0.49930800  0.34027800  0.34650700  1
  Sb  Sb19  1  0.00288200  0.33536200  0.46277800  1
  Sb  Sb20  1  0.50000000  0.83232000  1.00000000  1
  Sb  Sb21  1  1.00000000  0.83232000  0.11379000  1
  Sb  Sb22  1  0.50000000  0.83232000  0.22759000  1
  Sb  Sb23  1  0.49833100  0.82986900  0.46884500  1
  Sb  Sb24  1  0.50000000  0.16768000  1.00000000  1
  Sb  Sb25  1  0.50000000  0.16768000  0.22759000  1
  Sb  Sb26  1  0.49724900  0.19944000  0.47391700  1
  Sb  Sb27  1  0.50000000  0.66768000  0.11379000  1
  Sb  Sb28  1  0.49934600  0.66241100  0.34180000  1
  Sb  Sb29  1  0.99687300  0.66831400  0.46218000  1
  Cl  Cl30  1  0.46586900  0.39365100  0.54087100  1
  O  O31  1  1.00000000  0.17164000  0.04494000  1
  O  O32  1  0.50000000  0.17164000  0.15874000  1
  O  O33  1  0.00019600  0.15525700  0.27065200  1
  O  O34  1  0.50779600  0.17549500  0.39104900  1
  O  O35  1  0.50000000  0.17164000  0.06885000  1
  O  O36  1  1.00000000  0.17164000  0.18264000  1
  O  O37  1  0.49928400  0.16252500  0.30006000  1
  O  O38  1  0.99186700  0.19787300  0.40904300  1
  O  O39  1  0.69747000  0.67164000  1.00000000  1
  O  O40  1  0.19747000  0.67164000  0.11379000  1
  O  O41  1  0.69747000  0.67164000  0.22759000  1
  O  O42  1  0.19958100  0.66270300  0.33869800  1
  O  O43  1  0.68749500  0.66516800  0.45919300  1
  O  O44  1  0.30253000  0.67164000  1.00000000  1
  O  O45  1  0.80253000  0.67164000  0.11379000  1
  O  O46  1  0.30253000  0.67164000  0.22759000  1
  O  O47  1  0.79846000  0.66202900  0.33842200  1
  O  O48  1  0.30674800  0.66655600  0.45903000  1
  O  O49  1  0.69747000  0.32836000  1.00000000  1
  O  O50  1  0.19747000  0.32836000  0.11379000  1
  O  O51  1  0.69747000  0.32836000  0.22759000  1
  O  O52  1  0.19509600  0.33789500  0.34015800  1
  O  O53  1  0.69524500  0.34299400  0.45164300  1
  O  O54  1  0.30253000  0.32836000  1.00000000  1
  O  O55  1  0.80253000  0.32836000  0.11379000  1
  O  O56  1  0.30253000  0.32836000  0.22759000  1
  O  O57  1  0.80365800  0.33835300  0.33931000  1
  O  O58  1  0.30524100  0.33911600  0.44597800  1
  O  O59  1  1.00000000  0.82836000  0.04494000  1
  O  O60  1  0.50000000  0.82836000  0.15874000  1
  O  O61  1  0.00021600  0.84468700  0.27066400  1
  O  O62  1  0.49996000  0.82652200  0.39113100  1
  O  O63  1  0.50000000  0.82836000  0.06885000  1
  O  O64  1  1.00000000  0.82836000  0.18264000  1
  O  O65  1  0.49954100  0.84616900  0.30114500  1
  O  O66  1  0.99920800  0.79509800  0.40549200  1
  O  O67  1  1.00000000  0.50000000  0.04332000  1
  O  O68  1  0.50000000  0.50000000  0.15711000  1
  O  O69  1  0.00049200  0.49998000  0.27169600  1
  O  O70  1  0.50101400  0.50688100  0.38773500  1
  O  O71  1  0.50000000  0.50000000  0.07048000  1
  O  O72  1  1.00000000  0.50000000  0.18427000  1
  O  O73  1  0.49729800  0.49445700  0.29840000  1
  O  O74  1  0.99797300  0.50209900  0.41435900  1
  O  O75  1  0.69034000  1.00000000  0.00000000  1
  O  O76  1  0.19034000  0.00000000  0.11379000  1
  O  O77  1  0.69034000  1.00000000  0.22759000  1
  O  O78  1  0.19144100  0.00991300  0.35436100  1
  O  O79  1  0.75820400  0.99041900  0.45826200  1
  O  O80  1  0.30966000  0.00000000  1.00000000  1
  O  O81  1  0.80966000  1.00000000  0.11379000  1
  O  O82  1  0.30966000  0.00000000  0.22759000  1
  O  O83  1  0.81055500  0.00724300  0.35373100  1
  O  O84  1  0.24072700  0.99339700  0.45766300  1
