# generated using pymatgen
data_MgTiMnVZnCrFeCoCuNiSb20ClO54
_symmetry_space_group_name_H-M   'P 1'
_cell_length_a   6.64464500
_cell_length_b   9.53635000
_cell_length_c   29.15552300
_cell_angle_alpha   90.08932500
_cell_angle_beta   89.99266900
_cell_angle_gamma   89.99690200
_symmetry_Int_Tables_number   1
_chemical_formula_structural   MgTiMnVZnCrFeCoCuNiSb20ClO54
_chemical_formula_sum
'Mg1 Ti1 Mn1 V1 Zn1 Cr1 Fe1 Co1 Cu1 Ni1 Sb20 Cl1 O54'
_cell_volume   1847.45670463
_cell_formula_units_Z   1
loop_
 _symmetry_equiv_pos_site_id
 _symmetry_equiv_pos_as_xyz
  1  'x, y, z'
loop_
 _atom_site_type_symbol
 _atom_site_label
 _atom_site_symmetry_multiplicity
 _atom_site_fract_x
 _atom_site_fract_y
 _atom_site_fract_z
 _atom_site_occupancy
  Mg  Mg0  1  0.50214700  0.51462400  0.45308100  1
  Ti  Ti1  1  0.00406800  0.98790500  0.44667500  1
  Mn  Mn2  1  0.50261700  0.82700700  0.45960600  1
  V  V3  1  0.50000000  0.16768000  0.22759000  1
  Zn  Zn4  1  0.00110900  0.50320200  0.34473700  1
  Cr  Cr5  1  1.00000000  1.00000000  0.22759000  1
  Fe  Fe6  1  0.50000000  0.50000000  0.00000000  1
  Co  Co7  1  0.00000000  0.00000000  0.00000000  1
  Cu  Cu8  1  0.50000000  0.50000000  0.22759000  1
  Ni  Ni9  1  1.00000000  0.50000000  0.11379000  1
  Sb  Sb10  1  0.50000000  0.00000000  0.11379000  1
  Sb  Sb11  1  0.49971600  0.00370000  0.34256400  1
  Sb  Sb12  1  0.00000000  0.66768000  0.00000000  1
  Sb  Sb13  1  0.50000000  0.66768000  0.11379000  1
  Sb  Sb14  1  0.00000000  0.66768000  0.22759000  1
  Sb  Sb15  1  0.50002000  0.66687500  0.34152400  1
  Sb  Sb16  1  0.00193100  0.67472300  0.46282700  1
  Sb  Sb17  1  0.50000000  0.16768000  0.00000000  1
  Sb  Sb18  1  0.00000000  0.16768000  0.11379000  1
  Sb  Sb19  1  0.99940800  0.17843700  0.34151900  1
  Sb  Sb20  1  0.50395300  0.20336600  0.46663300  1
  Sb  Sb21  1  0.50000000  0.83232000  0.00000000  1
  Sb  Sb22  1  0.00000000  0.83232000  0.11379000  1
  Sb  Sb23  1  0.50000000  0.83232000  0.22759000  1
  Sb  Sb24  1  0.00009700  0.82620200  0.33972700  1
  Sb  Sb25  1  0.00000000  0.33232000  0.00000000  1
  Sb  Sb26  1  0.50000000  0.33232000  0.11379000  1
  Sb  Sb27  1  0.00000000  0.33232000  0.22759000  1
  Sb  Sb28  1  0.49959600  0.34110400  0.34157800  1
  Sb  Sb29  1  0.00132800  0.34157700  0.46056700  1
  Cl  Cl30  1  0.51325100  0.38743200  0.53309900  1
  O  O31  1  1.00000000  0.82836000  0.04494000  1
  O  O32  1  0.50000000  0.82836000  0.15874000  1
  O  O33  1  0.99980400  0.84474300  0.27065200  1
  O  O34  1  0.49951200  0.83589300  0.38461200  1
  O  O35  1  0.50000000  0.82836000  0.06885000  1
  O  O36  1  0.00000000  0.82836000  0.18264000  1
  O  O37  1  0.50076100  0.83501200  0.29683200  1
  O  O38  1  0.00638500  0.82574800  0.40872200  1
  O  O39  1  0.30253000  0.32836000  1.00000000  1
  O  O40  1  0.80253000  0.32836000  0.11379000  1
  O  O41  1  0.30253000  0.32836000  0.22759000  1
  O  O42  1  0.79858800  0.33787000  0.34004800  1
  O  O43  1  0.30471100  0.34244600  0.44339200  1
  O  O44  1  0.69747000  0.32836000  1.00000000  1
  O  O45  1  0.19747000  0.32836000  0.11379000  1
  O  O46  1  0.69747000  0.32836000  0.22759000  1
  O  O47  1  0.20067300  0.33681000  0.33993800  1
  O  O48  1  0.69985600  0.34277400  0.44196400  1
  O  O49  1  0.30253000  0.67164000  1.00000000  1
  O  O50  1  0.80253000  0.67164000  0.11379000  1
  O  O51  1  0.30253000  0.67164000  0.22759000  1
  O  O52  1  0.80192500  0.67120000  0.33823900  1
  O  O53  1  0.31749400  0.68210300  0.45788600  1
  O  O54  1  0.69747000  0.67164000  1.00000000  1
  O  O55  1  0.19747000  0.67164000  0.11379000  1
  O  O56  1  0.69747000  0.67164000  0.22759000  1
  O  O57  1  0.19821000  0.67173500  0.33758900  1
  O  O58  1  0.68772000  0.68244700  0.45565100  1
  O  O59  1  0.00000000  0.17164000  0.04494000  1
  O  O60  1  0.50000000  0.17164000  0.15874000  1
  O  O61  1  0.99978400  0.15531300  0.27066400  1
  O  O62  1  0.49928900  0.16733400  0.38498100  1
  O  O63  1  0.50000000  0.17164000  0.06885000  1
  O  O64  1  0.00000000  0.17164000  0.18264000  1
  O  O65  1  0.50016600  0.16668100  0.29577700  1
  O  O66  1  0.00202800  0.16439900  0.41676900  1
  O  O67  1  0.00000000  0.50000000  0.04332000  1
  O  O68  1  0.50000000  0.50000000  0.15711000  1
  O  O69  1  0.99950800  0.50002000  0.27169600  1
  O  O70  1  0.49348500  0.50871100  0.38411200  1
  O  O71  1  0.50000000  0.50000000  0.07048000  1
  O  O72  1  0.00000000  0.50000000  0.18427000  1
  O  O73  1  0.50076800  0.50505000  0.29656200  1
  O  O74  1  0.00411800  0.51127800  0.41777700  1
  O  O75  1  0.30966000  1.00000000  1.00000000  1
  O  O76  1  0.80966000  0.00000000  0.11379000  1
  O  O77  1  0.30966000  1.00000000  0.22759000  1
  O  O78  1  0.80556700  0.99538400  0.34267600  1
  O  O79  1  0.25438800  0.95687100  0.46959800  1
  O  O80  1  0.69034000  0.00000000  1.00000000  1
  O  O81  1  0.19034000  1.00000000  0.11379000  1
  O  O82  1  0.69034000  0.00000000  0.22759000  1
  O  O83  1  0.19388600  0.99625000  0.34211900  1
  O  O84  1  0.75409000  0.95526400  0.46953000  1
