# generated using pymatgen
data_MgTiMnVZnCrFeCoCuNiSb20ClO54
_symmetry_space_group_name_H-M   'P 1'
_cell_length_a   6.70725900
_cell_length_b   9.68487600
_cell_length_c   29.51381700
_cell_angle_alpha   90.07030900
_cell_angle_beta   89.91585800
_cell_angle_gamma   89.93836300
_symmetry_Int_Tables_number   1
_chemical_formula_structural   MgTiMnVZnCrFeCoCuNiSb20ClO54
_chemical_formula_sum
'Mg1 Ti1 Mn1 V1 Zn1 Cr1 Fe1 Co1 Cu1 Ni1 Sb20 Cl1 O54'
_cell_volume   1917.18257979
_cell_formula_units_Z   1
loop_
 _symmetry_equiv_pos_site_id
 _symmetry_equiv_pos_as_xyz
  1  'x, y, z'
loop_
 _atom_site_type_symbol
 _atom_site_label
 _atom_site_symmetry_multiplicity
 _atom_site_fract_x
 _atom_site_fract_y
 _atom_site_fract_z
 _atom_site_occupancy
  Mg  Mg0  1  0.49356900  0.49626500  0.44311300  1
  Ti  Ti1  1  0.50000000  0.16768000  0.22759000  1
  Mn  Mn2  1  0.49998500  0.33627300  0.33517000  1
  V  V3  1  0.00994200  0.98996900  0.44725700  1
  Zn  Zn4  1  0.00000000  0.16768000  0.11379000  1
  Cr  Cr5  1  0.99121500  0.66164400  0.43651700  1
  Fe  Fe6  1  0.49929400  0.98742200  0.34102300  1
  Co  Co7  1  0.50000000  0.66768000  0.11379000  1
  Cu  Cu8  1  0.49930700  0.66286700  0.34107300  1
  Ni  Ni9  1  0.00642500  0.32526400  0.44026300  1
  Sb  Sb10  1  0.00000000  0.00000000  0.00000000  1
  Sb  Sb11  1  0.50000000  0.00000000  0.11379000  1
  Sb  Sb12  1  0.00000000  0.00000000  0.22759000  1
  Sb  Sb13  1  0.50000000  0.50000000  0.00000000  1
  Sb  Sb14  1  0.00000000  0.50000000  0.11379000  1
  Sb  Sb15  1  0.50000000  0.50000000  0.22759000  1
  Sb  Sb16  1  0.00168600  0.49912300  0.34223700  1
  Sb  Sb17  1  1.00000000  0.66768000  0.00000000  1
  Sb  Sb18  1  0.00000000  0.66768000  0.22759000  1
  Sb  Sb19  1  0.50000000  0.16768000  0.00000000  1
  Sb  Sb20  1  0.99945200  0.16335200  0.34245200  1
  Sb  Sb21  1  0.51219500  0.18970700  0.44285500  1
  Sb  Sb22  1  0.50000000  0.83232000  0.00000000  1
  Sb  Sb23  1  0.00000000  0.83232000  0.11379000  1
  Sb  Sb24  1  0.50000000  0.83232000  0.22759000  1
  Sb  Sb25  1  0.99941100  0.83257600  0.34055800  1
  Sb  Sb26  1  0.48218700  0.81467700  0.45638000  1
  Sb  Sb27  1  0.00000000  0.33232000  0.00000000  1
  Sb  Sb28  1  0.50000000  0.33232000  0.11379000  1
  Sb  Sb29  1  0.00000000  0.33232000  0.22759000  1
  Cl  Cl30  1  0.50212400  0.60634900  0.51967000  1
  O  O31  1  0.00000000  0.82836000  0.04494000  1
  O  O32  1  0.50000000  0.82836000  0.15874000  1
  O  O33  1  0.99980400  0.84474300  0.27065200  1
  O  O34  1  0.49561100  0.85176100  0.38632300  1
  O  O35  1  0.50000000  0.82836000  0.06885000  1
  O  O36  1  0.00000000  0.82836000  0.18264000  1
  O  O37  1  0.50127300  0.83729300  0.29463900  1
  O  O38  1  0.99522900  0.84231200  0.40866200  1
  O  O39  1  0.30253000  0.32836000  0.00000000  1
  O  O40  1  0.80253000  0.32836000  0.11379000  1
  O  O41  1  0.30253000  0.32836000  0.22759000  1
  O  O42  1  0.80473900  0.33222900  0.33704400  1
  O  O43  1  0.29508000  0.33097700  0.44827000  1
  O  O44  1  0.69747000  0.32836000  0.00000000  1
  O  O45  1  0.19747000  0.32836000  0.11379000  1
  O  O46  1  0.69747000  0.32836000  0.22759000  1
  O  O47  1  0.19499700  0.33067000  0.33624000  1
  O  O48  1  0.71589100  0.33925200  0.44655500  1
  O  O49  1  0.30253000  0.67164000  0.00000000  1
  O  O50  1  0.80253000  0.67164000  0.11379000  1
  O  O51  1  0.30253000  0.67164000  0.22759000  1
  O  O52  1  0.80708000  0.66762800  0.33963400  1
  O  O53  1  0.26850500  0.66930600  0.44149800  1
  O  O54  1  0.69747000  0.67164000  0.00000000  1
  O  O55  1  0.19747000  0.67164000  0.11379000  1
  O  O56  1  0.69747000  0.67164000  0.22759000  1
  O  O57  1  0.19249000  0.66874600  0.33857800  1
  O  O58  1  0.73605300  0.65986900  0.44193600  1
  O  O59  1  0.00000000  0.17164000  0.04494000  1
  O  O60  1  0.50000000  0.17164000  0.15874000  1
  O  O61  1  0.99978400  0.15531300  0.27066400  1
  O  O62  1  0.50136200  0.17507700  0.37357500  1
  O  O63  1  0.50000000  0.17164000  0.06885000  1
  O  O64  1  0.00000000  0.17164000  0.18264000  1
  O  O65  1  0.50023900  0.18183100  0.28861000  1
  O  O66  1  0.99692100  0.14529600  0.41253000  1
  O  O67  1  0.00000000  0.50000000  0.04332000  1
  O  O68  1  0.50000000  0.50000000  0.15711000  1
  O  O69  1  0.99950800  0.50002000  0.27169600  1
  O  O70  1  0.49636400  0.47709400  0.37435500  1
  O  O71  1  0.50000000  0.50000000  0.07048000  1
  O  O72  1  0.00000000  0.50000000  0.18427000  1
  O  O73  1  0.50006800  0.49443500  0.29372800  1
  O  O74  1  0.01704300  0.49337700  0.41012800  1
  O  O75  1  0.30966000  1.00000000  0.00000000  1
  O  O76  1  0.80966000  0.00000000  0.11379000  1
  O  O77  1  0.30966000  1.00000000  0.22759000  1
  O  O78  1  0.80682600  0.99668300  0.33829600  1
  O  O79  1  0.22904800  0.96827100  0.47414000  1
  O  O80  1  0.69034000  0.00000000  0.00000000  1
  O  O81  1  0.19034000  1.00000000  0.11379000  1
  O  O82  1  0.69034000  0.00000000  0.22759000  1
  O  O83  1  0.19182100  0.99634900  0.33859900  1
  O  O84  1  0.81722400  0.98025500  0.48107400  1
