# generated using pymatgen
data_MgTiMnVZnCrFeCoCuNiSb20ClO54
_symmetry_space_group_name_H-M   'P 1'
_cell_length_a   6.70199200
_cell_length_b   9.52034700
_cell_length_c   28.94444600
_cell_angle_alpha   90.07878000
_cell_angle_beta   89.96170300
_cell_angle_gamma   89.93997500
_symmetry_Int_Tables_number   1
_chemical_formula_structural   MgTiMnVZnCrFeCoCuNiSb20ClO54
_chemical_formula_sum
'Mg1 Ti1 Mn1 V1 Zn1 Cr1 Fe1 Co1 Cu1 Ni1 Sb20 Cl1 O54'
_cell_volume   1846.80558092
_cell_formula_units_Z   1
loop_
 _symmetry_equiv_pos_site_id
 _symmetry_equiv_pos_as_xyz
  1  'x, y, z'
loop_
 _atom_site_type_symbol
 _atom_site_label
 _atom_site_symmetry_multiplicity
 _atom_site_fract_x
 _atom_site_fract_y
 _atom_site_fract_z
 _atom_site_occupancy
  Mg  Mg0  1  0.48697600  0.50875500  0.54343100  1
  Ti  Ti1  1  0.00000000  0.50000000  0.88621000  1
  Mn  Mn2  1  0.00716400  0.50050800  0.65518400  1
  V  V3  1  0.50000000  1.00000000  0.88621000  1
  Zn  Zn4  1  0.49624200  0.00259000  0.65709500  1
  Cr  Cr5  1  0.49776900  0.82350500  0.55095900  1
  Fe  Fe6  1  0.50000000  0.33232000  0.88621000  1
  Co  Co7  1  0.50000000  0.83232000  1.00000000  1
  Cu  Cu8  1  1.00000000  0.16768000  0.88621000  1
  Ni  Ni9  1  0.00000000  0.00000000  0.00000000  1
  Sb  Sb10  1  0.00000000  1.00000000  0.77241000  1
  Sb  Sb11  1  0.02587500  0.99296800  0.53471500  1
  Sb  Sb12  1  0.50000000  0.50000000  1.00000000  1
  Sb  Sb13  1  0.50000000  0.50000000  0.77241000  1
  Sb  Sb14  1  0.00000000  0.66768000  0.00000000  1
  Sb  Sb15  1  0.50000000  0.66768000  0.88621000  1
  Sb  Sb16  1  0.00000000  0.66768000  0.77241000  1
  Sb  Sb17  1  0.50307700  0.67042300  0.65672300  1
  Sb  Sb18  1  0.96938200  0.66566900  0.53736900  1
  Sb  Sb19  1  0.50000000  0.16768000  1.00000000  1
  Sb  Sb20  1  0.50000000  0.16768000  0.77241000  1
  Sb  Sb21  1  0.99475300  0.16447800  0.65423900  1
  Sb  Sb22  1  0.51177200  0.19300900  0.53869800  1
  Sb  Sb23  1  0.00000000  0.83232000  0.88621000  1
  Sb  Sb24  1  0.50000000  0.83232000  0.77241000  1
  Sb  Sb25  1  0.00015300  0.83597100  0.65519200  1
  Sb  Sb26  1  0.00000000  0.33232000  0.00000000  1
  Sb  Sb27  1  0.00000000  0.33232000  0.77241000  1
  Sb  Sb28  1  0.49944800  0.32702900  0.65153900  1
  Sb  Sb29  1  0.99988400  0.34084900  0.53842300  1
  Cl  Cl30  1  0.48641700  0.39890900  0.46706000  1
  O  O31  1  0.00000000  0.82836000  0.95506000  1
  O  O32  1  0.50000000  0.82836000  0.84126000  1
  O  O33  1  0.00019600  0.84474300  0.72934800  1
  O  O34  1  0.49583700  0.83226300  0.61353700  1
  O  O35  1  0.50000000  0.82836000  0.93115000  1
  O  O36  1  0.00000000  0.82836000  0.81736000  1
  O  O37  1  0.50171200  0.82960800  0.70394900  1
  O  O38  1  0.99367500  0.83360600  0.58541300  1
  O  O39  1  0.69747000  0.32836000  1.00000000  1
  O  O40  1  0.19747000  0.32836000  0.88621000  1
  O  O41  1  0.69747000  0.32836000  0.77241000  1
  O  O42  1  0.19350500  0.32402200  0.65782600  1
  O  O43  1  0.70279000  0.35005800  0.55756700  1
  O  O44  1  0.30253000  0.32836000  1.00000000  1
  O  O45  1  0.80253000  0.32836000  0.88621000  1
  O  O46  1  0.30253000  0.32836000  0.77241000  1
  O  O47  1  0.80496100  0.33028400  0.65857800  1
  O  O48  1  0.30033900  0.33235600  0.55771100  1
  O  O49  1  0.69747000  0.67164000  1.00000000  1
  O  O50  1  0.19747000  0.67164000  0.88621000  1
  O  O51  1  0.69747000  0.67164000  0.77241000  1
  O  O52  1  0.19761900  0.67567100  0.66103800  1
  O  O53  1  0.67919900  0.66639500  0.55255300  1
  O  O54  1  0.30253000  0.67164000  1.00000000  1
  O  O55  1  0.80253000  0.67164000  0.88621000  1
  O  O56  1  0.30253000  0.67164000  0.77241000  1
  O  O57  1  0.80614200  0.67248200  0.66011300  1
  O  O58  1  0.32019500  0.69797200  0.53397300  1
  O  O59  1  0.00000000  0.17164000  0.95506000  1
  O  O60  1  0.50000000  0.17164000  0.84126000  1
  O  O61  1  0.00021600  0.15531300  0.72933600  1
  O  O62  1  0.51478000  0.16060900  0.61094400  1
  O  O63  1  0.50000000  0.17164000  0.93115000  1
  O  O64  1  0.00000000  0.17164000  0.81736000  1
  O  O65  1  0.49986800  0.17404000  0.70337800  1
  O  O66  1  0.98715100  0.15605900  0.58402400  1
  O  O67  1  0.00000000  0.50000000  0.95668000  1
  O  O68  1  0.50000000  0.50000000  0.84289000  1
  O  O69  1  0.00049200  0.50002000  0.72830400  1
  O  O70  1  0.48294100  0.50700900  0.61464900  1
  O  O71  1  0.50000000  0.50000000  0.92952000  1
  O  O72  1  0.00000000  0.50000000  0.81573000  1
  O  O73  1  0.50039300  0.49635000  0.70042600  1
  O  O74  1  0.01491700  0.50973300  0.58578900  1
  O  O75  1  0.69034000  0.00000000  1.00000000  1
  O  O76  1  0.19034000  1.00000000  0.88621000  1
  O  O77  1  0.69034000  1.00000000  0.77241000  1
  O  O78  1  0.18997600  0.00151900  0.65850100  1
  O  O79  1  0.67335600  0.92314600  0.52644700  1
  O  O80  1  0.30966000  0.00000000  1.00000000  1
  O  O81  1  0.80966000  1.00000000  0.88621000  1
  O  O82  1  0.30966000  1.00000000  0.77241000  1
  O  O83  1  0.80514300  0.99897600  0.65957700  1
  O  O84  1  0.31269100  0.97771500  0.54777500  1
