# generated using pymatgen
data_MgTiMnVZnCrFeCoCuNiSb20ClO54
_symmetry_space_group_name_H-M   'P 1'
_cell_length_a   6.59367800
_cell_length_b   9.87792700
_cell_length_c   28.96203800
_cell_angle_alpha   89.89958900
_cell_angle_beta   89.95900000
_cell_angle_gamma   89.87069800
_symmetry_Int_Tables_number   1
_chemical_formula_structural   MgTiMnVZnCrFeCoCuNiSb20ClO54
_chemical_formula_sum
'Mg1 Ti1 Mn1 V1 Zn1 Cr1 Fe1 Co1 Cu1 Ni1 Sb20 Cl1 O54'
_cell_volume   1886.34351450
_cell_formula_units_Z   1
loop_
 _symmetry_equiv_pos_site_id
 _symmetry_equiv_pos_as_xyz
  1  'x, y, z'
loop_
 _atom_site_type_symbol
 _atom_site_label
 _atom_site_symmetry_multiplicity
 _atom_site_fract_x
 _atom_site_fract_y
 _atom_site_fract_z
 _atom_site_occupancy
  Mg  Mg0  1  0.52029200  0.48797600  0.45853100  1
  Ti  Ti1  1  0.00000000  0.00000000  0.00000000  1
  Mn  Mn2  1  0.00000000  0.66768000  0.00000000  1
  V  V3  1  0.98046900  0.32999500  0.44878100  1
  Zn  Zn4  1  1.00000000  0.33232000  0.00000000  1
  Cr  Cr5  1  0.00135400  0.17384800  0.33732800  1
  Fe  Fe6  1  0.99691500  0.80313800  0.33854200  1
  Co  Co7  1  0.50000000  0.33232000  0.11379000  1
  Cu  Cu8  1  0.50025600  0.65649600  0.34589900  1
  Ni  Ni9  1  0.50000000  0.83232000  0.00000000  1
  Sb  Sb10  1  0.50000000  0.00000000  0.11379000  1
  Sb  Sb11  1  1.00000000  1.00000000  0.22759000  1
  Sb  Sb12  1  0.50317000  0.98661500  0.34885400  1
  Sb  Sb13  1  0.00902300  0.00201100  0.41672500  1
  Sb  Sb14  1  0.50000000  0.50000000  0.00000000  1
  Sb  Sb15  1  0.00000000  0.50000000  0.11379000  1
  Sb  Sb16  1  0.50000000  0.50000000  0.22759000  1
  Sb  Sb17  1  0.00377800  0.50593500  0.34427500  1
  Sb  Sb18  1  1.00000000  0.33232000  0.22759000  1
  Sb  Sb19  1  0.50085900  0.32735400  0.34323200  1
  Sb  Sb20  1  0.00000000  0.83232000  0.11379000  1
  Sb  Sb21  1  0.50000000  0.83232000  0.22759000  1
  Sb  Sb22  1  0.50179200  0.78651600  0.46086200  1
  Sb  Sb23  1  0.50000000  0.16768000  0.00000000  1
  Sb  Sb24  1  1.00000000  0.16768000  0.11379000  1
  Sb  Sb25  1  0.50000000  0.16768000  0.22759000  1
  Sb  Sb26  1  0.51406300  0.14304200  0.46287500  1
  Sb  Sb27  1  0.50000000  0.66768000  0.11379000  1
  Sb  Sb28  1  0.00000000  0.66768000  0.22759000  1
  Sb  Sb29  1  0.00945000  0.67094700  0.46462600  1
  Cl  Cl30  1  0.48355500  0.57772100  0.53493100  1
  O  O31  1  1.00000000  0.17164000  0.04494000  1
  O  O32  1  0.50000000  0.17164000  0.15874000  1
  O  O33  1  0.00019600  0.15525700  0.27065200  1
  O  O34  1  0.50366600  0.16281100  0.39181600  1
  O  O35  1  0.50000000  0.17164000  0.06885000  1
  O  O36  1  1.00000000  0.17164000  0.18264000  1
  O  O37  1  0.50389700  0.15366300  0.30109700  1
  O  O38  1  0.00609700  0.20371000  0.40446300  1
  O  O39  1  0.69747000  0.67164000  0.00000000  1
  O  O40  1  0.19747000  0.67164000  0.11379000  1
  O  O41  1  0.69747000  0.67164000  0.22759000  1
  O  O42  1  0.20232500  0.66930100  0.33847500  1
  O  O43  1  0.70879500  0.64527700  0.44574200  1
  O  O44  1  0.30253000  0.67164000  0.00000000  1
  O  O45  1  0.80253000  0.67164000  0.11379000  1
  O  O46  1  0.30253000  0.67164000  0.22759000  1
  O  O47  1  0.79841000  0.66574700  0.33913900  1
  O  O48  1  0.30393900  0.64392400  0.44284300  1
  O  O49  1  0.69747000  0.32836000  0.00000000  1
  O  O50  1  0.19747000  0.32836000  0.11379000  1
  O  O51  1  0.69747000  0.32836000  0.22759000  1
  O  O52  1  0.19715200  0.31617000  0.33307600  1
  O  O53  1  0.73255300  0.32136900  0.47066600  1
  O  O54  1  0.30253000  0.32836000  0.00000000  1
  O  O55  1  0.80253000  0.32836000  0.11379000  1
  O  O56  1  0.30253000  0.32836000  0.22759000  1
  O  O57  1  0.80649600  0.31803700  0.33427200  1
  O  O58  1  0.17724500  0.31352900  0.48351200  1
  O  O59  1  0.00000000  0.82836000  0.04494000  1
  O  O60  1  0.50000000  0.82836000  0.15874000  1
  O  O61  1  0.00021600  0.84468700  0.27066400  1
  O  O62  1  0.50670900  0.82882700  0.39023800  1
  O  O63  1  0.50000000  0.82836000  0.06885000  1
  O  O64  1  1.00000000  0.82836000  0.18264000  1
  O  O65  1  0.50272100  0.84955200  0.29709100  1
  O  O66  1  0.99529200  0.80592900  0.40995200  1
  O  O67  1  0.00000000  0.50000000  0.04332000  1
  O  O68  1  0.50000000  0.50000000  0.15711000  1
  O  O69  1  0.00049200  0.49998000  0.27169600  1
  O  O70  1  0.49054600  0.45222900  0.39238500  1
  O  O71  1  0.50000000  0.50000000  0.07048000  1
  O  O72  1  0.00000000  0.50000000  0.18427000  1
  O  O73  1  0.50274100  0.48953500  0.29922100  1
  O  O74  1  0.99883900  0.49151200  0.42467000  1
  O  O75  1  0.69034000  1.00000000  0.00000000  1
  O  O76  1  0.19034000  0.00000000  0.11379000  1
  O  O77  1  0.69034000  1.00000000  0.22759000  1
  O  O78  1  0.18484300  0.00648100  0.35399700  1
  O  O79  1  0.76509700  0.01914900  0.45635500  1
  O  O80  1  0.30966000  0.00000000  0.00000000  1
  O  O81  1  0.80966000  1.00000000  0.11379000  1
  O  O82  1  0.30966000  0.00000000  0.22759000  1
  O  O83  1  0.82384300  0.00620800  0.35474000  1
  O  O84  1  0.24946300  0.00615500  0.45543900  1
