# generated using pymatgen
data_MgTiMnVZnCrFeCoCuNiSb20ClO54
_symmetry_space_group_name_H-M   'P 1'
_cell_length_a   6.64973200
_cell_length_b   9.60274500
_cell_length_c   29.83656800
_cell_angle_alpha   89.82929800
_cell_angle_beta   89.99254600
_cell_angle_gamma   89.98372300
_symmetry_Int_Tables_number   1
_chemical_formula_structural   MgTiMnVZnCrFeCoCuNiSb20ClO54
_chemical_formula_sum
'Mg1 Ti1 Mn1 V1 Zn1 Cr1 Fe1 Co1 Cu1 Ni1 Sb20 Cl1 O54'
_cell_volume   1905.22581132
_cell_formula_units_Z   1
loop_
 _symmetry_equiv_pos_site_id
 _symmetry_equiv_pos_as_xyz
  1  'x, y, z'
loop_
 _atom_site_type_symbol
 _atom_site_label
 _atom_site_symmetry_multiplicity
 _atom_site_fract_x
 _atom_site_fract_y
 _atom_site_fract_z
 _atom_site_occupancy
  Mg  Mg0  1  0.50100700  0.50513100  0.54782100  1
  Ti  Ti1  1  0.00000000  0.66768000  0.00000000  1
  Mn  Mn2  1  1.00000000  0.33232000  0.77241000  1
  V  V3  1  0.50000000  0.16768000  0.77241000  1
  Zn  Zn4  1  0.00247100  0.01039600  0.55488900  1
  Cr  Cr5  1  0.00085100  0.50187900  0.66265800  1
  Fe  Fe6  1  0.00183100  0.33398900  0.56148300  1
  Co  Co7  1  0.50000000  0.50000000  0.00000000  1
  Cu  Cu8  1  0.50158300  0.83567000  0.54533200  1
  Ni  Ni9  1  0.50000000  0.83232000  0.00000000  1
  Sb  Sb10  1  0.00000000  0.00000000  0.00000000  1
  Sb  Sb11  1  0.50000000  1.00000000  0.88621000  1
  Sb  Sb12  1  0.00000000  1.00000000  0.77241000  1
  Sb  Sb13  1  0.50014900  0.00700200  0.65928000  1
  Sb  Sb14  1  0.00000000  0.50000000  0.88621000  1
  Sb  Sb15  1  0.50000000  0.50000000  0.77241000  1
  Sb  Sb16  1  1.00000000  0.33232000  0.00000000  1
  Sb  Sb17  1  0.50000000  0.33232000  0.88621000  1
  Sb  Sb18  1  0.50046400  0.33680300  0.65975900  1
  Sb  Sb19  1  0.00000000  0.83232000  0.88621000  1
  Sb  Sb20  1  0.50000000  0.83232000  0.77241000  1
  Sb  Sb21  1  0.00077200  0.82346500  0.65117700  1
  Sb  Sb22  1  0.50000000  0.16768000  0.00000000  1
  Sb  Sb23  1  1.00000000  0.16768000  0.88621000  1
  Sb  Sb24  1  0.00036800  0.17519200  0.66213600  1
  Sb  Sb25  1  0.50231800  0.16792900  0.53987600  1
  Sb  Sb26  1  0.50000000  0.66768000  0.88621000  1
  Sb  Sb27  1  0.00000000  0.66768000  0.77241000  1
  Sb  Sb28  1  0.50104500  0.66566900  0.65511000  1
  Sb  Sb29  1  0.00161500  0.65075600  0.54476400  1
  Cl  Cl30  1  0.50143800  0.18340500  0.46100800  1
  O  O31  1  1.00000000  0.17164000  0.95506000  1
  O  O32  1  0.50000000  0.17164000  0.84126000  1
  O  O33  1  0.99980400  0.15525700  0.72934800  1
  O  O34  1  0.50099700  0.17305800  0.61654500  1
  O  O35  1  0.50000000  0.17164000  0.93115000  1
  O  O36  1  1.00000000  0.17164000  0.81736000  1
  O  O37  1  0.50034700  0.16885000  0.70573200  1
  O  O38  1  0.00239100  0.17090000  0.59680800  1
  O  O39  1  0.30253000  0.67164000  0.00000000  1
  O  O40  1  0.80253000  0.67164000  0.88621000  1
  O  O41  1  0.30253000  0.67164000  0.77241000  1
  O  O42  1  0.80341600  0.65366300  0.66133800  1
  O  O43  1  0.31073300  0.67606700  0.54221800  1
  O  O44  1  0.69747000  0.67164000  0.00000000  1
  O  O45  1  0.19747000  0.67164000  0.88621000  1
  O  O46  1  0.69747000  0.67164000  0.77241000  1
  O  O47  1  0.19836700  0.65364700  0.66128300  1
  O  O48  1  0.69134000  0.67679100  0.54227300  1
  O  O49  1  0.30253000  0.32836000  0.00000000  1
  O  O50  1  0.80253000  0.32836000  0.88621000  1
  O  O51  1  0.30253000  0.32836000  0.77241000  1
  O  O52  1  0.80781800  0.33978600  0.66363900  1
  O  O53  1  0.29388200  0.32626400  0.54537600  1
  O  O54  1  0.69747000  0.32836000  0.00000000  1
  O  O55  1  0.19747000  0.32836000  0.88621000  1
  O  O56  1  0.69747000  0.32836000  0.77241000  1
  O  O57  1  0.19349700  0.33942600  0.66394200  1
  O  O58  1  0.70923900  0.32592200  0.54561700  1
  O  O59  1  0.00000000  0.82836000  0.95506000  1
  O  O60  1  0.50000000  0.82836000  0.84126000  1
  O  O61  1  0.99978400  0.84468700  0.72933600  1
  O  O62  1  0.50064900  0.84060700  0.61818300  1
  O  O63  1  0.50000000  0.82836000  0.93115000  1
  O  O64  1  0.00000000  0.82836000  0.81736000  1
  O  O65  1  0.50028000  0.83228400  0.70311700  1
  O  O66  1  0.00269500  0.82287900  0.58282100  1
  O  O67  1  0.00000000  0.50000000  0.95668000  1
  O  O68  1  0.50000000  0.50000000  0.84289000  1
  O  O69  1  0.99950800  0.49998000  0.72830400  1
  O  O70  1  0.50064400  0.49681500  0.61592700  1
  O  O71  1  0.50000000  0.50000000  0.92952000  1
  O  O72  1  0.00000000  0.50000000  0.81573000  1
  O  O73  1  0.50106900  0.50656900  0.70203600  1
  O  O74  1  0.00219500  0.50369300  0.59514100  1
  O  O75  1  0.30966000  0.00000000  0.00000000  1
  O  O76  1  0.80966000  1.00000000  0.88621000  1
  O  O77  1  0.30966000  1.00000000  0.77241000  1
  O  O78  1  0.79901200  0.01465800  0.66177300  1
  O  O79  1  0.30488900  0.00909100  0.54467700  1
  O  O80  1  0.69034000  0.00000000  0.00000000  1
  O  O81  1  0.19034000  1.00000000  0.88621000  1
  O  O82  1  0.69034000  1.00000000  0.77241000  1
  O  O83  1  0.20171800  0.01432200  0.66184200  1
  O  O84  1  0.70036900  0.00941800  0.54456300  1
