# generated using pymatgen
data_MgTiMnVZnCrFeCoCuNiSb20ClO54
_symmetry_space_group_name_H-M   'P 1'
_cell_length_a   6.66193700
_cell_length_b   9.62708100
_cell_length_c   28.68406200
_cell_angle_alpha   90.27241700
_cell_angle_beta   89.89013200
_cell_angle_gamma   89.97558600
_symmetry_Int_Tables_number   1
_chemical_formula_structural   MgTiMnVZnCrFeCoCuNiSb20ClO54
_chemical_formula_sum
'Mg1 Ti1 Mn1 V1 Zn1 Cr1 Fe1 Co1 Cu1 Ni1 Sb20 Cl1 O54'
_cell_volume   1839.62817053
_cell_formula_units_Z   1
loop_
 _symmetry_equiv_pos_site_id
 _symmetry_equiv_pos_as_xyz
  1  'x, y, z'
loop_
 _atom_site_type_symbol
 _atom_site_label
 _atom_site_symmetry_multiplicity
 _atom_site_fract_x
 _atom_site_fract_y
 _atom_site_fract_z
 _atom_site_occupancy
  Mg  Mg0  1  0.52575900  0.52169500  0.45645000  1
  Ti  Ti1  1  0.00000000  0.66768000  0.22759000  1
  Mn  Mn2  1  1.00000000  0.66768000  0.00000000  1
  V  V3  1  0.50393600  0.66629200  0.34074000  1
  Zn  Zn4  1  0.00000000  0.00000000  0.00000000  1
  Cr  Cr5  1  0.49694600  0.83074900  0.44897400  1
  Fe  Fe6  1  0.50000000  0.16768000  1.00000000  1
  Co  Co7  1  0.50000000  0.33232000  0.11379000  1
  Cu  Cu8  1  1.00000000  0.33232000  0.22759000  1
  Ni  Ni9  1  0.00000000  1.00000000  0.22759000  1
  Sb  Sb10  1  0.50000000  1.00000000  0.11379000  1
  Sb  Sb11  1  0.50155500  0.99666200  0.34248400  1
  Sb  Sb12  1  0.97434900  0.00423600  0.45752400  1
  Sb  Sb13  1  0.50000000  0.50000000  1.00000000  1
  Sb  Sb14  1  1.00000000  0.50000000  0.11379000  1
  Sb  Sb15  1  0.50000000  0.50000000  0.22759000  1
  Sb  Sb16  1  0.99294900  0.49693900  0.34103700  1
  Sb  Sb17  1  0.50000000  0.66768000  0.11379000  1
  Sb  Sb18  1  0.03160900  0.69440900  0.46985700  1
  Sb  Sb19  1  1.00000000  0.16768000  0.11379000  1
  Sb  Sb20  1  0.50000000  0.16768000  0.22759000  1
  Sb  Sb21  1  0.00248600  0.16308500  0.33674100  1
  Sb  Sb22  1  0.48706300  0.19281500  0.46482500  1
  Sb  Sb23  1  0.50000000  0.83232000  1.00000000  1
  Sb  Sb24  1  1.00000000  0.83232000  0.11379000  1
  Sb  Sb25  1  0.50000000  0.83232000  0.22759000  1
  Sb  Sb26  1  0.00435700  0.82989300  0.33914100  1
  Sb  Sb27  1  0.00000000  0.33232000  0.00000000  1
  Sb  Sb28  1  0.49750800  0.33683500  0.35811700  1
  Sb  Sb29  1  0.99745700  0.33379000  0.46068700  1
  Cl  Cl30  1  0.55954500  0.41139200  0.53154300  1
  O  O31  1  1.00000000  0.82836000  0.04494000  1
  O  O32  1  0.50000000  0.82836000  0.15874000  1
  O  O33  1  0.99980400  0.84474300  0.27065200  1
  O  O34  1  0.49082400  0.83396200  0.38529000  1
  O  O35  1  0.50000000  0.82836000  0.06885000  1
  O  O36  1  0.00000000  0.82836000  0.18264000  1
  O  O37  1  0.49493300  0.83630500  0.29755800  1
  O  O38  1  0.00153400  0.83621100  0.41196300  1
  O  O39  1  0.30253000  0.32836000  1.00000000  1
  O  O40  1  0.80253000  0.32836000  0.11379000  1
  O  O41  1  0.30253000  0.32836000  0.22759000  1
  O  O42  1  0.80435200  0.31510700  0.34017600  1
  O  O43  1  0.29965300  0.35376300  0.43987600  1
  O  O44  1  0.69747000  0.32836000  1.00000000  1
  O  O45  1  0.19747000  0.32836000  0.11379000  1
  O  O46  1  0.69747000  0.32836000  0.22759000  1
  O  O47  1  0.18899900  0.32329800  0.33933000  1
  O  O48  1  0.69116200  0.32520600  0.43680500  1
  O  O49  1  0.30253000  0.67164000  1.00000000  1
  O  O50  1  0.80253000  0.67164000  0.11379000  1
  O  O51  1  0.30253000  0.67164000  0.22759000  1
  O  O52  1  0.78287500  0.69317900  0.33706100  1
  O  O53  1  0.31761400  0.67250200  0.45267800  1
  O  O54  1  0.69747000  0.67164000  1.00000000  1
  O  O55  1  0.19747000  0.67164000  0.11379000  1
  O  O56  1  0.69747000  0.67164000  0.22759000  1
  O  O57  1  0.21474300  0.68280300  0.34046200  1
  O  O58  1  0.67878300  0.71512400  0.46896200  1
  O  O59  1  1.00000000  0.17164000  0.04494000  1
  O  O60  1  0.50000000  0.17164000  0.15874000  1
  O  O61  1  0.99978400  0.15531300  0.27066400  1
  O  O62  1  0.46611900  0.14252400  0.39125200  1
  O  O63  1  0.50000000  0.17164000  0.06885000  1
  O  O64  1  0.00000000  0.17164000  0.18264000  1
  O  O65  1  0.49819700  0.15995100  0.30078400  1
  O  O66  1  0.01272700  0.16019900  0.40919400  1
  O  O67  1  1.00000000  0.50000000  0.04332000  1
  O  O68  1  0.50000000  0.50000000  0.15711000  1
  O  O69  1  0.99950800  0.50002000  0.27169600  1
  O  O70  1  0.52495800  0.55412000  0.38638100  1
  O  O71  1  0.50000000  0.50000000  0.07048000  1
  O  O72  1  0.00000000  0.50000000  0.18427000  1
  O  O73  1  0.49625500  0.52371900  0.30021900  1
  O  O74  1  0.95557600  0.52408000  0.43449400  1
  O  O75  1  0.30966000  0.00000000  1.00000000  1
  O  O76  1  0.80966000  1.00000000  0.11379000  1
  O  O77  1  0.30966000  0.00000000  0.22759000  1
  O  O78  1  0.80722300  0.99689100  0.34550800  1
  O  O79  1  0.31504500  0.93273000  0.47330700  1
  O  O80  1  0.69034000  1.00000000  1.00000000  1
  O  O81  1  0.19034000  0.00000000  0.11379000  1
  O  O82  1  0.69034000  1.00000000  0.22759000  1
  O  O83  1  0.19400400  0.99475300  0.34291800  1
  O  O84  1  0.67920600  0.99120600  0.45091600  1
