# generated using pymatgen
data_MgTiMnVZnCrFeCoCuNiSb20ClO54
_symmetry_space_group_name_H-M   'P 1'
_cell_length_a   6.68273100
_cell_length_b   9.38790100
_cell_length_c   28.49743300
_cell_angle_alpha   90.36220600
_cell_angle_beta   89.75911000
_cell_angle_gamma   89.99078000
_symmetry_Int_Tables_number   1
_chemical_formula_structural   MgTiMnVZnCrFeCoCuNiSb20ClO54
_chemical_formula_sum
'Mg1 Ti1 Mn1 V1 Zn1 Cr1 Fe1 Co1 Cu1 Ni1 Sb20 Cl1 O54'
_cell_volume   1787.78668364
_cell_formula_units_Z   1
loop_
 _symmetry_equiv_pos_site_id
 _symmetry_equiv_pos_as_xyz
  1  'x, y, z'
loop_
 _atom_site_type_symbol
 _atom_site_label
 _atom_site_symmetry_multiplicity
 _atom_site_fract_x
 _atom_site_fract_y
 _atom_site_fract_z
 _atom_site_occupancy
  Mg  Mg0  1  0.49732100  0.53182600  0.54328400  1
  Ti  Ti1  1  0.00000000  0.16768000  0.88621000  1
  Mn  Mn2  1  0.50000000  0.50000000  0.00000000  1
  V  V3  1  0.50000000  0.83232000  1.00000000  1
  Zn  Zn4  1  0.99640800  0.67132300  0.53236700  1
  Cr  Cr5  1  0.50000000  0.66768000  0.88621000  1
  Fe  Fe6  1  0.50000000  0.00000000  0.88621000  1
  Co  Co7  1  0.50000000  0.33232000  0.88621000  1
  Cu  Cu8  1  1.00000000  0.00000000  0.77241000  1
  Ni  Ni9  1  1.00000000  0.83232000  0.88621000  1
  Sb  Sb10  1  0.00000000  0.00000000  0.00000000  1
  Sb  Sb11  1  0.50133000  0.98284500  0.60997200  1
  Sb  Sb12  1  0.99887500  0.97729000  0.54337700  1
  Sb  Sb13  1  0.00000000  0.50000000  0.88621000  1
  Sb  Sb14  1  0.50000000  0.50000000  0.77241000  1
  Sb  Sb15  1  0.01300400  0.49838900  0.63909100  1
  Sb  Sb16  1  0.00000000  0.66768000  1.00000000  1
  Sb  Sb17  1  0.00000000  0.66768000  0.77241000  1
  Sb  Sb18  1  0.50516500  0.66798400  0.65782600  1
  Sb  Sb19  1  0.50000000  0.16768000  1.00000000  1
  Sb  Sb20  1  0.50000000  0.16768000  0.77241000  1
  Sb  Sb21  1  0.00041100  0.15674700  0.65875000  1
  Sb  Sb22  1  0.48979400  0.22462700  0.50767400  1
  Sb  Sb23  1  0.50000000  0.83232000  0.77241000  1
  Sb  Sb24  1  0.00185000  0.83662800  0.65990600  1
  Sb  Sb25  1  0.49699700  0.82881500  0.50496400  1
  Sb  Sb26  1  0.00000000  0.33232000  0.00000000  1
  Sb  Sb27  1  1.00000000  0.33232000  0.77241000  1
  Sb  Sb28  1  0.50568700  0.31621800  0.65382500  1
  Sb  Sb29  1  0.99603800  0.31556800  0.52712300  1
  Cl  Cl30  1  0.45533700  0.38463200  0.43979900  1
  O  O31  1  0.00000000  0.82836000  0.95506000  1
  O  O32  1  0.50000000  0.82836000  0.84126000  1
  O  O33  1  0.00019600  0.84474300  0.72934800  1
  O  O34  1  0.50470800  0.76303300  0.59884700  1
  O  O35  1  0.50000000  0.82836000  0.93115000  1
  O  O36  1  1.00000000  0.82836000  0.81736000  1
  O  O37  1  0.50858600  0.82438600  0.70290400  1
  O  O38  1  0.99732400  0.81682000  0.58993100  1
  O  O39  1  0.69747000  0.32836000  0.00000000  1
  O  O40  1  0.19747000  0.32836000  0.88621000  1
  O  O41  1  0.69747000  0.32836000  0.77241000  1
  O  O42  1  0.20404900  0.31297000  0.65772800  1
  O  O43  1  0.69029700  0.36118100  0.53102500  1
  O  O44  1  0.30253000  0.32836000  0.00000000  1
  O  O45  1  0.80253000  0.32836000  0.88621000  1
  O  O46  1  0.30253000  0.32836000  0.77241000  1
  O  O47  1  0.80834500  0.32304000  0.65826300  1
  O  O48  1  0.29704000  0.35618800  0.53871500  1
  O  O49  1  0.69747000  0.67164000  1.00000000  1
  O  O50  1  0.19747000  0.67164000  0.88621000  1
  O  O51  1  0.69747000  0.67164000  0.77241000  1
  O  O52  1  0.20503800  0.67834800  0.66335400  1
  O  O53  1  0.70560400  0.67887100  0.51812600  1
  O  O54  1  0.30253000  0.67164000  1.00000000  1
  O  O55  1  0.80253000  0.67164000  0.88621000  1
  O  O56  1  0.30253000  0.67164000  0.77241000  1
  O  O57  1  0.80745300  0.67001200  0.66148200  1
  O  O58  1  0.28922200  0.67813300  0.52052300  1
  O  O59  1  1.00000000  0.17164000  0.95506000  1
  O  O60  1  0.50000000  0.17164000  0.84126000  1
  O  O61  1  0.00021600  0.15531300  0.72933600  1
  O  O62  1  0.51432100  0.19824100  0.59852200  1
  O  O63  1  0.50000000  0.17164000  0.93115000  1
  O  O64  1  0.00000000  0.17164000  0.81736000  1
  O  O65  1  0.50621900  0.17397300  0.70275500  1
  O  O66  1  0.99668000  0.16338300  0.58490900  1
  O  O67  1  0.00000000  0.50000000  0.95668000  1
  O  O68  1  0.50000000  0.50000000  0.84289000  1
  O  O69  1  0.00049200  0.50002000  0.72830400  1
  O  O70  1  0.49937700  0.49450000  0.61550100  1
  O  O71  1  0.50000000  0.50000000  0.92952000  1
  O  O72  1  1.00000000  0.50000000  0.81573000  1
  O  O73  1  0.50183300  0.49251600  0.70172900  1
  O  O74  1  0.98289700  0.49034900  0.56646300  1
  O  O75  1  0.69034000  1.00000000  1.00000000  1
  O  O76  1  0.19034000  0.00000000  0.88621000  1
  O  O77  1  0.69034000  0.00000000  0.77241000  1
  O  O78  1  0.19847700  0.99849400  0.65434900  1
  O  O79  1  0.68427900  0.97405000  0.55174300  1
  O  O80  1  0.30966000  1.00000000  1.00000000  1
  O  O81  1  0.80966000  0.00000000  0.88621000  1
  O  O82  1  0.30966000  0.00000000  0.77241000  1
  O  O83  1  0.80155200  0.99792400  0.65469000  1
  O  O84  1  0.31237500  0.97461300  0.55229100  1
