# generated using pymatgen
data_MgTiMnVZnCrFeCoCuNiSb20ClO54
_symmetry_space_group_name_H-M   'P 1'
_cell_length_a   6.70674700
_cell_length_b   9.52706600
_cell_length_c   29.46220000
_cell_angle_alpha   90.15915800
_cell_angle_beta   89.91452800
_cell_angle_gamma   89.94418400
_symmetry_Int_Tables_number   1
_chemical_formula_structural   MgTiMnVZnCrFeCoCuNiSb20ClO54
_chemical_formula_sum
'Mg1 Ti1 Mn1 V1 Zn1 Cr1 Fe1 Co1 Cu1 Ni1 Sb20 Cl1 O54'
_cell_volume   1882.49531575
_cell_formula_units_Z   1
loop_
 _symmetry_equiv_pos_site_id
 _symmetry_equiv_pos_as_xyz
  1  'x, y, z'
loop_
 _atom_site_type_symbol
 _atom_site_label
 _atom_site_symmetry_multiplicity
 _atom_site_fract_x
 _atom_site_fract_y
 _atom_site_fract_z
 _atom_site_occupancy
  Mg  Mg0  1  0.49552800  0.48888300  0.55759600  1
  Ti  Ti1  1  0.03042700  0.50677600  0.66326300  1
  Mn  Mn2  1  0.00000000  0.33232000  0.77241000  1
  V  V3  1  0.00000000  0.00000000  0.00000000  1
  Zn  Zn4  1  0.51285800  0.69069300  0.65582200  1
  Cr  Cr5  1  0.53732000  0.34619400  0.66670100  1
  Fe  Fe6  1  0.50000000  0.33232000  0.88621000  1
  Co  Co7  1  0.50000000  0.83232000  1.00000000  1
  Cu  Cu8  1  0.50000000  0.50000000  0.77241000  1
  Ni  Ni9  1  0.49872300  0.00703100  0.66401900  1
  Sb  Sb10  1  0.50000000  0.00000000  0.88621000  1
  Sb  Sb11  1  0.00000000  0.00000000  0.77241000  1
  Sb  Sb12  1  0.99371200  0.99372900  0.53768900  1
  Sb  Sb13  1  0.50000000  0.50000000  0.00000000  1
  Sb  Sb14  1  0.00000000  0.50000000  0.88621000  1
  Sb  Sb15  1  0.00000000  0.66768000  1.00000000  1
  Sb  Sb16  1  0.50000000  0.66768000  0.88621000  1
  Sb  Sb17  1  0.00000000  0.66768000  0.77241000  1
  Sb  Sb18  1  0.99748700  0.65576500  0.54943600  1
  Sb  Sb19  1  0.50000000  0.16768000  0.00000000  1
  Sb  Sb20  1  1.00000000  0.16768000  0.88621000  1
  Sb  Sb21  1  0.50000000  0.16768000  0.77241000  1
  Sb  Sb22  1  0.00065000  0.16675600  0.66062700  1
  Sb  Sb23  1  0.49731900  0.16817200  0.56087000  1
  Sb  Sb24  1  0.00000000  0.83232000  0.88621000  1
  Sb  Sb25  1  0.50000000  0.83232000  0.77241000  1
  Sb  Sb26  1  0.99600300  0.83392400  0.65758700  1
  Sb  Sb27  1  0.49559200  0.79804800  0.55201000  1
  Sb  Sb28  1  1.00000000  0.33232000  0.00000000  1
  Sb  Sb29  1  0.99610800  0.33184800  0.54513000  1
  Cl  Cl30  1  0.48049900  0.65689800  0.47948800  1
  O  O31  1  0.00000000  0.82836000  0.95506000  1
  O  O32  1  0.50000000  0.82836000  0.84126000  1
  O  O33  1  0.00019600  0.84474300  0.72934800  1
  O  O34  1  0.50665600  0.86069200  0.61545700  1
  O  O35  1  0.50000000  0.82836000  0.93115000  1
  O  O36  1  1.00000000  0.82836000  0.81736000  1
  O  O37  1  0.50269500  0.84087200  0.70627600  1
  O  O38  1  0.99382700  0.83895600  0.58918200  1
  O  O39  1  0.69747000  0.32836000  0.00000000  1
  O  O40  1  0.19747000  0.32836000  0.88621000  1
  O  O41  1  0.69747000  0.32836000  0.77241000  1
  O  O42  1  0.17855600  0.33574100  0.66241300  1
  O  O43  1  0.68761900  0.32506000  0.54906600  1
  O  O44  1  0.30253000  0.32836000  0.00000000  1
  O  O45  1  0.80253000  0.32836000  0.88621000  1
  O  O46  1  0.30253000  0.32836000  0.77241000  1
  O  O47  1  0.80682800  0.33365900  0.66551400  1
  O  O48  1  0.30459000  0.32513700  0.55128200  1
  O  O49  1  0.69747000  0.67164000  1.00000000  1
  O  O50  1  0.19747000  0.67164000  0.88621000  1
  O  O51  1  0.69747000  0.67164000  0.77241000  1
  O  O52  1  0.19392400  0.66901400  0.66210800  1
  O  O53  1  0.69449000  0.64674700  0.56680400  1
  O  O54  1  0.30253000  0.67164000  1.00000000  1
  O  O55  1  0.80253000  0.67164000  0.88621000  1
  O  O56  1  0.30253000  0.67164000  0.77241000  1
  O  O57  1  0.81833600  0.66633600  0.66139700  1
  O  O58  1  0.29812900  0.64865700  0.56993100  1
  O  O59  1  0.00000000  0.17164000  0.95506000  1
  O  O60  1  0.50000000  0.17164000  0.84126000  1
  O  O61  1  0.00021600  0.15531300  0.72933600  1
  O  O62  1  0.49900300  0.18461200  0.62779900  1
  O  O63  1  0.50000000  0.17164000  0.93115000  1
  O  O64  1  1.00000000  0.17164000  0.81736000  1
  O  O65  1  0.50142900  0.16837100  0.70565500  1
  O  O66  1  0.99198600  0.16152300  0.59076900  1
  O  O67  1  0.00000000  0.50000000  0.95668000  1
  O  O68  1  0.50000000  0.50000000  0.84289000  1
  O  O69  1  0.00049200  0.50002000  0.72830400  1
  O  O70  1  0.50986100  0.46366800  0.62543200  1
  O  O71  1  0.50000000  0.50000000  0.92952000  1
  O  O72  1  0.00000000  0.50000000  0.81573000  1
  O  O73  1  0.48789900  0.45553700  0.70898800  1
  O  O74  1  0.99422100  0.48739100  0.59417000  1
  O  O75  1  0.69034000  0.00000000  0.00000000  1
  O  O76  1  0.19034000  0.00000000  0.88621000  1
  O  O77  1  0.69034000  0.00000000  0.77241000  1
  O  O78  1  0.19138300  0.99957700  0.65982400  1
  O  O79  1  0.71444600  0.92028900  0.52655000  1
  O  O80  1  0.30966000  0.00000000  0.00000000  1
  O  O81  1  0.80966000  0.00000000  0.88621000  1
  O  O82  1  0.30966000  0.00000000  0.77241000  1
  O  O83  1  0.80748100  0.00182800  0.66089500  1
  O  O84  1  0.27908000  0.92632500  0.52901500  1
