# generated using pymatgen
data_MgTiMnVZnCrFeCoCuNiSb20ClO54
_symmetry_space_group_name_H-M   'P 1'
_cell_length_a   6.66990700
_cell_length_b   9.43549700
_cell_length_c   29.09369500
_cell_angle_alpha   89.63301800
_cell_angle_beta   89.93526500
_cell_angle_gamma   89.94448000
_symmetry_Int_Tables_number   1
_chemical_formula_structural   MgTiMnVZnCrFeCoCuNiSb20ClO54
_chemical_formula_sum
'Mg1 Ti1 Mn1 V1 Zn1 Cr1 Fe1 Co1 Cu1 Ni1 Sb20 Cl1 O54'
_cell_volume   1830.93975482
_cell_formula_units_Z   1
loop_
 _symmetry_equiv_pos_site_id
 _symmetry_equiv_pos_as_xyz
  1  'x, y, z'
loop_
 _atom_site_type_symbol
 _atom_site_label
 _atom_site_symmetry_multiplicity
 _atom_site_fract_x
 _atom_site_fract_y
 _atom_site_fract_z
 _atom_site_occupancy
  Mg  Mg0  1  0.49630100  0.48951800  0.44256100  1
  Ti  Ti1  1  0.00000000  0.33232000  0.00000000  1
  Mn  Mn2  1  0.00000000  0.83232000  0.11379000  1
  V  V3  1  0.50000000  0.16768000  0.00000000  1
  Zn  Zn4  1  0.50000000  0.16768000  0.22759000  1
  Cr  Cr5  1  0.49788900  0.32161400  0.34031200  1
  Fe  Fe6  1  0.50000000  0.83232000  0.22759000  1
  Co  Co7  1  0.50000000  0.33232000  0.11379000  1
  Cu  Cu8  1  0.00000000  0.33232000  0.22759000  1
  Ni  Ni9  1  0.99937400  0.49220300  0.33887500  1
  Sb  Sb10  1  0.00000000  0.00000000  0.00000000  1
  Sb  Sb11  1  0.50000000  1.00000000  0.11379000  1
  Sb  Sb12  1  0.00000000  1.00000000  0.22759000  1
  Sb  Sb13  1  0.49909800  0.00203500  0.34111300  1
  Sb  Sb14  1  0.99521400  0.99873200  0.46028300  1
  Sb  Sb15  1  0.50000000  0.50000000  0.00000000  1
  Sb  Sb16  1  0.00000000  0.50000000  0.11379000  1
  Sb  Sb17  1  0.50000000  0.50000000  0.22759000  1
  Sb  Sb18  1  0.99780100  0.33659400  0.45701700  1
  Sb  Sb19  1  0.50000000  0.83232000  0.00000000  1
  Sb  Sb20  1  0.00095700  0.82670000  0.34112500  1
  Sb  Sb21  1  0.49442600  0.81201500  0.45431200  1
  Sb  Sb22  1  0.00000000  0.16768000  0.11379000  1
  Sb  Sb23  1  0.99737700  0.17862500  0.33834900  1
  Sb  Sb24  1  0.49722300  0.17079800  0.46188500  1
  Sb  Sb25  1  0.00000000  0.66768000  0.00000000  1
  Sb  Sb26  1  0.50000000  0.66768000  0.11379000  1
  Sb  Sb27  1  0.00000000  0.66768000  0.22759000  1
  Sb  Sb28  1  0.49955600  0.65808100  0.33822700  1
  Sb  Sb29  1  0.99210800  0.66250600  0.45710300  1
  Cl  Cl30  1  0.51751000  0.80095400  0.53707300  1
  O  O31  1  0.00000000  0.17164000  0.04494000  1
  O  O32  1  0.50000000  0.17164000  0.15874000  1
  O  O33  1  0.00019600  0.15525700  0.27065200  1
  O  O34  1  0.49529600  0.15789400  0.38853700  1
  O  O35  1  0.50000000  0.17164000  0.06885000  1
  O  O36  1  0.00000000  0.17164000  0.18264000  1
  O  O37  1  0.49982900  0.16271100  0.30061500  1
  O  O38  1  0.99594100  0.16116000  0.41175300  1
  O  O39  1  0.69747000  0.67164000  1.00000000  1
  O  O40  1  0.19747000  0.67164000  0.11379000  1
  O  O41  1  0.69747000  0.67164000  0.22759000  1
  O  O42  1  0.19353100  0.66509800  0.33881400  1
  O  O43  1  0.68387400  0.65754700  0.44433500  1
  O  O44  1  0.30253000  0.67164000  0.00000000  1
  O  O45  1  0.80253000  0.67164000  0.11379000  1
  O  O46  1  0.30253000  0.67164000  0.22759000  1
  O  O47  1  0.80258100  0.66702400  0.33774800  1
  O  O48  1  0.30516900  0.65598500  0.44964600  1
  O  O49  1  0.69747000  0.32836000  1.00000000  1
  O  O50  1  0.19747000  0.32836000  0.11379000  1
  O  O51  1  0.69747000  0.32836000  0.22759000  1
  O  O52  1  0.19750400  0.32807300  0.34239500  1
  O  O53  1  0.69339800  0.33389200  0.45016700  1
  O  O54  1  0.30253000  0.32836000  0.00000000  1
  O  O55  1  0.80253000  0.32836000  0.11379000  1
  O  O56  1  0.30253000  0.32836000  0.22759000  1
  O  O57  1  0.79721400  0.32886200  0.34225700  1
  O  O58  1  0.30082300  0.33398000  0.45061700  1
  O  O59  1  0.00000000  0.82836000  0.04494000  1
  O  O60  1  0.50000000  0.82836000  0.15874000  1
  O  O61  1  0.00021600  0.84468700  0.27066400  1
  O  O62  1  0.49011900  0.82467700  0.38334900  1
  O  O63  1  0.50000000  0.82836000  0.06885000  1
  O  O64  1  0.00000000  0.82836000  0.18264000  1
  O  O65  1  0.49936900  0.83161500  0.29778400  1
  O  O66  1  0.99903300  0.82956500  0.41123800  1
  O  O67  1  0.00000000  0.50000000  0.04332000  1
  O  O68  1  0.50000000  0.50000000  0.15711000  1
  O  O69  1  0.00049200  0.49998000  0.27169600  1
  O  O70  1  0.49365900  0.49126200  0.37741300  1
  O  O71  1  0.50000000  0.50000000  0.07048000  1
  O  O72  1  0.00000000  0.50000000  0.18427000  1
  O  O73  1  0.49883300  0.49627400  0.29517600  1
  O  O74  1  0.99602100  0.50075900  0.41152000  1
  O  O75  1  0.69034000  0.00000000  1.00000000  1
  O  O76  1  0.19034000  1.00000000  0.11379000  1
  O  O77  1  0.69034000  0.00000000  0.22759000  1
  O  O78  1  0.18673100  0.99630800  0.34323900  1
  O  O79  1  0.68551700  0.97618000  0.44712100  1
  O  O80  1  0.30966000  1.00000000  0.00000000  1
  O  O81  1  0.80966000  0.00000000  0.11379000  1
  O  O82  1  0.30966000  1.00000000  0.22759000  1
  O  O83  1  0.80910100  0.99425200  0.34365400  1
  O  O84  1  0.30488600  0.97467300  0.44969600  1
