# generated using pymatgen
data_MgTiMnVZnCrFeCoCuNiSb20ClO54
_symmetry_space_group_name_H-M   'P 1'
_cell_length_a   6.63495100
_cell_length_b   9.45231000
_cell_length_c   29.12149900
_cell_angle_alpha   90.05959400
_cell_angle_beta   89.98324800
_cell_angle_gamma   89.99296500
_symmetry_Int_Tables_number   1
_chemical_formula_structural   MgTiMnVZnCrFeCoCuNiSb20ClO54
_chemical_formula_sum
'Mg1 Ti1 Mn1 V1 Zn1 Cr1 Fe1 Co1 Cu1 Ni1 Sb20 Cl1 O54'
_cell_volume   1826.37160145
_cell_formula_units_Z   1
loop_
 _symmetry_equiv_pos_site_id
 _symmetry_equiv_pos_as_xyz
  1  'x, y, z'
loop_
 _atom_site_type_symbol
 _atom_site_label
 _atom_site_symmetry_multiplicity
 _atom_site_fract_x
 _atom_site_fract_y
 _atom_site_fract_z
 _atom_site_occupancy
  Mg  Mg0  1  0.49954100  0.51918700  0.44924100  1
  Ti  Ti1  1  0.50000000  0.16768000  0.22759000  1
  Mn  Mn2  1  0.99948400  0.66920700  0.45122200  1
  V  V3  1  0.00000000  0.00000000  0.22759000  1
  Zn  Zn4  1  0.99881600  0.34644300  0.44860000  1
  Cr  Cr5  1  0.50000000  0.50000000  0.22759000  1
  Fe  Fe6  1  1.00000000  0.66768000  0.22759000  1
  Co  Co7  1  0.00000000  0.83232000  0.11379000  1
  Cu  Cu8  1  0.50000000  0.50000000  0.00000000  1
  Ni  Ni9  1  0.50000000  0.00000000  0.11379000  1
  Sb  Sb10  1  0.00000000  0.00000000  0.00000000  1
  Sb  Sb11  1  0.49916100  0.00045200  0.38248200  1
  Sb  Sb12  1  0.99907500  0.99529000  0.45084800  1
  Sb  Sb13  1  0.00000000  0.50000000  0.11379000  1
  Sb  Sb14  1  0.99836200  0.50274800  0.34032000  1
  Sb  Sb15  1  0.00000000  0.33232000  0.00000000  1
  Sb  Sb16  1  0.50000000  0.33232000  0.11379000  1
  Sb  Sb17  1  0.00000000  0.33232000  0.22759000  1
  Sb  Sb18  1  0.49817900  0.33082200  0.33740800  1
  Sb  Sb19  1  0.50000000  0.83232000  0.00000000  1
  Sb  Sb20  1  0.50000000  0.83232000  0.22759000  1
  Sb  Sb21  1  0.99883100  0.84246100  0.33754600  1
  Sb  Sb22  1  0.49924600  0.82709100  0.47900600  1
  Sb  Sb23  1  0.50000000  0.16768000  0.00000000  1
  Sb  Sb24  1  0.00000000  0.16768000  0.11379000  1
  Sb  Sb25  1  0.99902500  0.16022200  0.34079800  1
  Sb  Sb26  1  0.49834600  0.23470100  0.48869400  1
  Sb  Sb27  1  0.00000000  0.66768000  0.00000000  1
  Sb  Sb28  1  0.50000000  0.66768000  0.11379000  1
  Sb  Sb29  1  0.49803000  0.66807500  0.33568700  1
  Cl  Cl30  1  0.50143100  0.37982300  0.55667500  1
  O  O31  1  0.00000000  0.17164000  0.04494000  1
  O  O32  1  0.50000000  0.17164000  0.15874000  1
  O  O33  1  0.00019600  0.15525700  0.27065200  1
  O  O34  1  0.49593400  0.20809000  0.39046000  1
  O  O35  1  0.50000000  0.17164000  0.06885000  1
  O  O36  1  1.00000000  0.17164000  0.18264000  1
  O  O37  1  0.49965500  0.17853600  0.29341700  1
  O  O38  1  0.99968100  0.16636500  0.40897200  1
  O  O39  1  0.69747000  0.67164000  0.00000000  1
  O  O40  1  0.19747000  0.67164000  0.11379000  1
  O  O41  1  0.69747000  0.67164000  0.22759000  1
  O  O42  1  0.19060900  0.66890900  0.33571600  1
  O  O43  1  0.70775400  0.67712200  0.46372400  1
  O  O44  1  0.30253000  0.67164000  0.00000000  1
  O  O45  1  0.80253000  0.67164000  0.11379000  1
  O  O46  1  0.30253000  0.67164000  0.22759000  1
  O  O47  1  0.80564800  0.66908000  0.33587900  1
  O  O48  1  0.29012300  0.67773100  0.46420900  1
  O  O49  1  0.69747000  0.32836000  0.00000000  1
  O  O50  1  0.19747000  0.32836000  0.11379000  1
  O  O51  1  0.69747000  0.32836000  0.22759000  1
  O  O52  1  0.18949700  0.33174500  0.33769700  1
  O  O53  1  0.70958900  0.35982000  0.46191200  1
  O  O54  1  0.30253000  0.32836000  0.00000000  1
  O  O55  1  0.80253000  0.32836000  0.11379000  1
  O  O56  1  0.30253000  0.32836000  0.22759000  1
  O  O57  1  0.80694900  0.33184100  0.33822200  1
  O  O58  1  0.28833700  0.36072500  0.46181200  1
  O  O59  1  0.00000000  0.82836000  0.04494000  1
  O  O60  1  0.50000000  0.82836000  0.15874000  1
  O  O61  1  0.00021600  0.84468700  0.27066400  1
  O  O62  1  0.49659000  0.79020800  0.38893400  1
  O  O63  1  0.50000000  0.82836000  0.06885000  1
  O  O64  1  0.00000000  0.82836000  0.18264000  1
  O  O65  1  0.49904600  0.83426200  0.29679500  1
  O  O66  1  0.99844500  0.83000700  0.40551700  1
  O  O67  1  1.00000000  0.50000000  0.04332000  1
  O  O68  1  0.50000000  0.50000000  0.15711000  1
  O  O69  1  0.00049200  0.49998000  0.27169600  1
  O  O70  1  0.49819600  0.50199800  0.37896500  1
  O  O71  1  0.50000000  0.50000000  0.07048000  1
  O  O72  1  0.00000000  0.50000000  0.18427000  1
  O  O73  1  0.50017400  0.49864100  0.29334500  1
  O  O74  1  0.99876800  0.51104200  0.40637500  1
  O  O75  1  0.69034000  0.00000000  0.00000000  1
  O  O76  1  0.19034000  0.00000000  0.11379000  1
  O  O77  1  0.69034000  0.00000000  0.22759000  1
  O  O78  1  0.21146300  0.00461900  0.34226000  1
  O  O79  1  0.68507300  0.98570700  0.43771900  1
  O  O80  1  0.30966000  0.00000000  1.00000000  1
  O  O81  1  0.80966000  0.00000000  0.11379000  1
  O  O82  1  0.30966000  0.00000000  0.22759000  1
  O  O83  1  0.78570000  0.00491100  0.34207100  1
  O  O84  1  0.31224200  0.98492300  0.43790300  1
