# generated using pymatgen
data_MgTiMnVZnCrFeCoCuNiSb20ClO54
_symmetry_space_group_name_H-M   'P 1'
_cell_length_a   6.68107100
_cell_length_b   9.55733100
_cell_length_c   29.90664300
_cell_angle_alpha   90.41050800
_cell_angle_beta   89.99256100
_cell_angle_gamma   89.99515000
_symmetry_Int_Tables_number   1
_chemical_formula_structural   MgTiMnVZnCrFeCoCuNiSb20ClO54
_chemical_formula_sum
'Mg1 Ti1 Mn1 V1 Zn1 Cr1 Fe1 Co1 Cu1 Ni1 Sb20 Cl1 O54'
_cell_volume   1909.58602892
_cell_formula_units_Z   1
loop_
 _symmetry_equiv_pos_site_id
 _symmetry_equiv_pos_as_xyz
  1  'x, y, z'
loop_
 _atom_site_type_symbol
 _atom_site_label
 _atom_site_symmetry_multiplicity
 _atom_site_fract_x
 _atom_site_fract_y
 _atom_site_fract_z
 _atom_site_occupancy
  Mg  Mg0  1  0.49967200  0.48046900  0.55346500  1
  Ti  Ti1  1  0.00000000  0.83232000  0.88621000  1
  Mn  Mn2  1  0.00026100  0.82251800  0.66139200  1
  V  V3  1  0.49899800  0.33313400  0.66215900  1
  Zn  Zn4  1  0.99773600  0.66029700  0.56880400  1
  Cr  Cr5  1  0.99931900  0.49657600  0.66225800  1
  Fe  Fe6  1  0.50000000  0.50000000  0.77241000  1
  Co  Co7  1  0.00000000  0.66768000  0.00000000  1
  Cu  Cu8  1  0.49941700  0.15836400  0.55160900  1
  Ni  Ni9  1  0.50000000  0.50000000  1.00000000  1
  Sb  Sb10  1  0.00000000  0.00000000  0.00000000  1
  Sb  Sb11  1  0.50000000  0.00000000  0.88621000  1
  Sb  Sb12  1  0.00000000  0.00000000  0.77241000  1
  Sb  Sb13  1  0.49968400  0.00485600  0.65890400  1
  Sb  Sb14  1  0.99812800  0.98212900  0.54959700  1
  Sb  Sb15  1  0.00000000  0.50000000  0.88621000  1
  Sb  Sb16  1  0.50000000  0.66768000  0.88621000  1
  Sb  Sb17  1  0.00000000  0.66768000  0.77241000  1
  Sb  Sb18  1  0.49969800  0.65218500  0.66155700  1
  Sb  Sb19  1  0.50000000  0.16768000  1.00000000  1
  Sb  Sb20  1  0.00000000  0.16768000  0.88621000  1
  Sb  Sb21  1  0.50000000  0.16768000  0.77241000  1
  Sb  Sb22  1  0.99914400  0.16721200  0.65886100  1
  Sb  Sb23  1  0.50000000  0.83232000  1.00000000  1
  Sb  Sb24  1  0.50000000  0.83232000  0.77241000  1
  Sb  Sb25  1  0.49807800  0.81812700  0.54974000  1
  Sb  Sb26  1  1.00000000  0.33232000  0.00000000  1
  Sb  Sb27  1  0.50000000  0.33232000  0.88621000  1
  Sb  Sb28  1  0.00000000  0.33232000  0.77241000  1
  Sb  Sb29  1  0.99966900  0.33684200  0.54912800  1
  Cl  Cl30  1  0.49606700  0.82691800  0.47046900  1
  O  O31  1  0.00000000  0.82836000  0.95506000  1
  O  O32  1  0.50000000  0.82836000  0.84126000  1
  O  O33  1  0.00019600  0.84474300  0.72934800  1
  O  O34  1  0.50084800  0.83186200  0.62034600  1
  O  O35  1  0.50000000  0.82836000  0.93115000  1
  O  O36  1  0.00000000  0.82836000  0.81736000  1
  O  O37  1  0.49808300  0.84331200  0.70453400  1
  O  O38  1  0.99807300  0.84248800  0.59854800  1
  O  O39  1  0.69747000  0.32836000  1.00000000  1
  O  O40  1  0.19747000  0.32836000  0.88621000  1
  O  O41  1  0.69747000  0.32836000  0.77241000  1
  O  O42  1  0.19421600  0.32735600  0.66442500  1
  O  O43  1  0.69387400  0.30737500  0.54379500  1
  O  O44  1  0.30253000  0.32836000  1.00000000  1
  O  O45  1  0.80253000  0.32836000  0.88621000  1
  O  O46  1  0.30253000  0.32836000  0.77241000  1
  O  O47  1  0.80489700  0.32805200  0.66498700  1
  O  O48  1  0.30542700  0.30783600  0.54415200  1
  O  O49  1  0.69747000  0.67164000  1.00000000  1
  O  O50  1  0.19747000  0.67164000  0.88621000  1
  O  O51  1  0.69747000  0.67164000  0.77241000  1
  O  O52  1  0.18205300  0.66047100  0.66315000  1
  O  O53  1  0.69766200  0.66186200  0.55328400  1
  O  O54  1  0.30253000  0.67164000  1.00000000  1
  O  O55  1  0.80253000  0.67164000  0.88621000  1
  O  O56  1  0.30253000  0.67164000  0.77241000  1
  O  O57  1  0.81763300  0.66096000  0.66341300  1
  O  O58  1  0.29824200  0.66192000  0.55340700  1
  O  O59  1  1.00000000  0.17164000  0.95506000  1
  O  O60  1  0.50000000  0.17164000  0.84126000  1
  O  O61  1  0.00021600  0.15531300  0.72933600  1
  O  O62  1  0.50084800  0.17765000  0.62358300  1
  O  O63  1  0.50000000  0.17164000  0.93115000  1
  O  O64  1  1.00000000  0.17164000  0.81736000  1
  O  O65  1  0.49879200  0.16291500  0.70604500  1
  O  O66  1  0.99861400  0.15962800  0.59130500  1
  O  O67  1  0.00000000  0.50000000  0.95668000  1
  O  O68  1  0.50000000  0.50000000  0.84289000  1
  O  O69  1  0.00049200  0.50002000  0.72830400  1
  O  O70  1  0.49942600  0.46006000  0.62122700  1
  O  O71  1  0.50000000  0.50000000  0.92952000  1
  O  O72  1  1.00000000  0.50000000  0.81573000  1
  O  O73  1  0.49903400  0.46660800  0.70584800  1
  O  O74  1  0.99786000  0.47828400  0.59807400  1
  O  O75  1  0.69034000  0.00000000  1.00000000  1
  O  O76  1  0.19034000  0.00000000  0.88621000  1
  O  O77  1  0.69034000  0.00000000  0.77241000  1
  O  O78  1  0.19284100  0.00298800  0.66275700  1
  O  O79  1  0.68271300  0.99007800  0.55550700  1
  O  O80  1  0.30966000  0.00000000  1.00000000  1
  O  O81  1  0.80966000  0.00000000  0.88621000  1
  O  O82  1  0.30966000  0.00000000  0.77241000  1
  O  O83  1  0.80616400  0.00286500  0.66298000  1
  O  O84  1  0.31528400  0.99001600  0.55569300  1
