# generated using pymatgen
data_MgTiMnVZnCrFeCoCuNiSb20ClO54
_symmetry_space_group_name_H-M   'P 1'
_cell_length_a   6.76505200
_cell_length_b   9.49247300
_cell_length_c   29.91280900
_cell_angle_alpha   89.70521000
_cell_angle_beta   89.95919300
_cell_angle_gamma   89.96084200
_symmetry_Int_Tables_number   1
_chemical_formula_structural   MgTiMnVZnCrFeCoCuNiSb20ClO54
_chemical_formula_sum
'Mg1 Ti1 Mn1 V1 Zn1 Cr1 Fe1 Co1 Cu1 Ni1 Sb20 Cl1 O54'
_cell_volume   1920.88669698
_cell_formula_units_Z   1
loop_
 _symmetry_equiv_pos_site_id
 _symmetry_equiv_pos_as_xyz
  1  'x, y, z'
loop_
 _atom_site_type_symbol
 _atom_site_label
 _atom_site_symmetry_multiplicity
 _atom_site_fract_x
 _atom_site_fract_y
 _atom_site_fract_z
 _atom_site_occupancy
  Mg  Mg0  1  0.49764300  0.47339900  0.44014000  1
  Ti  Ti1  1  0.50000000  1.00000000  0.11379000  1
  Mn  Mn2  1  0.00000000  0.00000000  0.22759000  1
  V  V3  1  0.00862400  0.18163500  0.33643000  1
  Zn  Zn4  1  1.00000000  0.83232000  0.11379000  1
  Cr  Cr5  1  0.99938700  0.48820900  0.33811000  1
  Fe  Fe6  1  0.50547500  0.01144600  0.33798900  1
  Co  Co7  1  0.99908300  0.65762200  0.43389400  1
  Cu  Cu8  1  0.50577500  0.32891700  0.33594400  1
  Ni  Ni9  1  0.49923200  0.15341100  0.43719900  1
  Sb  Sb10  1  0.00000000  0.00000000  0.00000000  1
  Sb  Sb11  1  0.99894900  0.00046900  0.44745300  1
  Sb  Sb12  1  0.50000000  0.50000000  0.00000000  1
  Sb  Sb13  1  1.00000000  0.50000000  0.11379000  1
  Sb  Sb14  1  0.50000000  0.50000000  0.22759000  1
  Sb  Sb15  1  1.00000000  0.66768000  0.00000000  1
  Sb  Sb16  1  0.50000000  0.66768000  0.11379000  1
  Sb  Sb17  1  1.00000000  0.66768000  0.22759000  1
  Sb  Sb18  1  0.49956300  0.66156700  0.33894400  1
  Sb  Sb19  1  0.50000000  0.16768000  0.00000000  1
  Sb  Sb20  1  0.00000000  0.16768000  0.11379000  1
  Sb  Sb21  1  0.50000000  0.16768000  0.22759000  1
  Sb  Sb22  1  0.50000000  0.83232000  0.00000000  1
  Sb  Sb23  1  0.50000000  0.83232000  0.22759000  1
  Sb  Sb24  1  0.99847700  0.84330500  0.33762000  1
  Sb  Sb25  1  0.49862600  0.81831100  0.44588400  1
  Sb  Sb26  1  0.00000000  0.33232000  0.00000000  1
  Sb  Sb27  1  0.50000000  0.33232000  0.11379000  1
  Sb  Sb28  1  0.00000000  0.33232000  0.22759000  1
  Sb  Sb29  1  0.99816600  0.32662700  0.44701300  1
  Cl  Cl30  1  0.49939600  0.82648500  0.52517300  1
  O  O31  1  1.00000000  0.82836000  0.04494000  1
  O  O32  1  0.50000000  0.82836000  0.15874000  1
  O  O33  1  0.99980400  0.84474300  0.27065200  1
  O  O34  1  0.49697700  0.83133800  0.37746400  1
  O  O35  1  0.50000000  0.82836000  0.06885000  1
  O  O36  1  1.00000000  0.82836000  0.18264000  1
  O  O37  1  0.50072400  0.82749900  0.29413100  1
  O  O38  1  0.00386200  0.83876400  0.40438000  1
  O  O39  1  0.30253000  0.32836000  0.00000000  1
  O  O40  1  0.80253000  0.32836000  0.11379000  1
  O  O41  1  0.30253000  0.32836000  0.22759000  1
  O  O42  1  0.82827000  0.31887400  0.33445200  1
  O  O43  1  0.30947900  0.29992500  0.44730800  1
  O  O44  1  0.69747000  0.32836000  0.00000000  1
  O  O45  1  0.19747000  0.32836000  0.11379000  1
  O  O46  1  0.69747000  0.32836000  0.22759000  1
  O  O47  1  0.17871900  0.32017300  0.33482600  1
  O  O48  1  0.68795900  0.29974200  0.44744600  1
  O  O49  1  0.30253000  0.67164000  0.00000000  1
  O  O50  1  0.80253000  0.67164000  0.11379000  1
  O  O51  1  0.30253000  0.67164000  0.22759000  1
  O  O52  1  0.81126700  0.66653300  0.33634800  1
  O  O53  1  0.29048100  0.66151600  0.44443500  1
  O  O54  1  0.69747000  0.67164000  0.00000000  1
  O  O55  1  0.19747000  0.67164000  0.11379000  1
  O  O56  1  0.69747000  0.67164000  0.22759000  1
  O  O57  1  0.18857700  0.66659500  0.33617200  1
  O  O58  1  0.70931700  0.66270800  0.44415300  1
  O  O59  1  0.00000000  0.17164000  0.04494000  1
  O  O60  1  0.50000000  0.17164000  0.15874000  1
  O  O61  1  0.99978400  0.15531300  0.27066400  1
  O  O62  1  0.50046200  0.15733100  0.37464900  1
  O  O63  1  0.50000000  0.17164000  0.06885000  1
  O  O64  1  0.00000000  0.17164000  0.18264000  1
  O  O65  1  0.49962300  0.16981100  0.29292100  1
  O  O66  1  0.99993800  0.16112300  0.40152700  1
  O  O67  1  1.00000000  0.50000000  0.04332000  1
  O  O68  1  0.50000000  0.50000000  0.15711000  1
  O  O69  1  0.99950800  0.50002000  0.27169600  1
  O  O70  1  0.50345400  0.49288500  0.37553000  1
  O  O71  1  0.50000000  0.50000000  0.07048000  1
  O  O72  1  1.00000000  0.50000000  0.18427000  1
  O  O73  1  0.50325500  0.50361400  0.29305500  1
  O  O74  1  0.00047200  0.48343000  0.40181800  1
  O  O75  1  0.30966000  1.00000000  0.00000000  1
  O  O76  1  0.80966000  1.00000000  0.11379000  1
  O  O77  1  0.30966000  1.00000000  0.22759000  1
  O  O78  1  0.80786800  0.00525700  0.33659300  1
  O  O79  1  0.31624700  0.99298100  0.44269200  1
  O  O80  1  0.69034000  1.00000000  0.00000000  1
  O  O81  1  0.19034000  1.00000000  0.11379000  1
  O  O82  1  0.69034000  1.00000000  0.22759000  1
  O  O83  1  0.18680600  0.00893100  0.33615000  1
  O  O84  1  0.68290700  0.99242900  0.44214300  1
