# generated using pymatgen
data_MgTiMnVZnCrFeCoCuNiSb20ClO54
_symmetry_space_group_name_H-M   'P 1'
_cell_length_a   6.66010900
_cell_length_b   9.53808900
_cell_length_c   28.77979800
_cell_angle_alpha   90.31848500
_cell_angle_beta   89.99139700
_cell_angle_gamma   89.99890700
_symmetry_Int_Tables_number   1
_chemical_formula_structural   MgTiMnVZnCrFeCoCuNiSb20ClO54
_chemical_formula_sum
'Mg1 Ti1 Mn1 V1 Zn1 Cr1 Fe1 Co1 Cu1 Ni1 Sb20 Cl1 O54'
_cell_volume   1828.20012529
_cell_formula_units_Z   1
loop_
 _symmetry_equiv_pos_site_id
 _symmetry_equiv_pos_as_xyz
  1  'x, y, z'
loop_
 _atom_site_type_symbol
 _atom_site_label
 _atom_site_symmetry_multiplicity
 _atom_site_fract_x
 _atom_site_fract_y
 _atom_site_fract_z
 _atom_site_occupancy
  Mg  Mg0  1  0.49696100  0.48055900  0.54679900  1
  Ti  Ti1  1  0.50000000  0.33232000  0.88621000  1
  Mn  Mn2  1  0.00000000  0.83232000  0.88621000  1
  V  V3  1  0.00000000  0.33232000  0.77241000  1
  Zn  Zn4  1  0.00000000  0.66768000  0.00000000  1
  Cr  Cr5  1  0.00000000  0.33232000  0.00000000  1
  Fe  Fe6  1  0.99954000  0.16111600  0.65731600  1
  Co  Co7  1  0.50000000  0.00000000  0.88621000  1
  Cu  Cu8  1  0.49552000  0.15841600  0.54236300  1
  Ni  Ni9  1  0.50123600  0.65746400  0.65709900  1
  Sb  Sb10  1  0.00000000  0.00000000  0.00000000  1
  Sb  Sb11  1  0.00000000  1.00000000  0.77241000  1
  Sb  Sb12  1  0.50006400  0.98975800  0.65398600  1
  Sb  Sb13  1  0.99878600  0.99958800  0.53575900  1
  Sb  Sb14  1  0.50000000  0.50000000  0.00000000  1
  Sb  Sb15  1  0.00000000  0.50000000  0.88621000  1
  Sb  Sb16  1  0.50000000  0.50000000  0.77241000  1
  Sb  Sb17  1  0.00032100  0.49575000  0.65652800  1
  Sb  Sb18  1  0.50000000  0.66768000  0.88621000  1
  Sb  Sb19  1  0.00000000  0.66768000  0.77241000  1
  Sb  Sb20  1  0.99740600  0.65473600  0.53255600  1
  Sb  Sb21  1  0.50000000  0.16768000  0.00000000  1
  Sb  Sb22  1  0.00000000  0.16768000  0.88621000  1
  Sb  Sb23  1  0.50000000  0.16768000  0.77241000  1
  Sb  Sb24  1  0.50000000  0.83232000  0.00000000  1
  Sb  Sb25  1  0.50000000  0.83232000  0.77241000  1
  Sb  Sb26  1  0.00015000  0.82734800  0.65250800  1
  Sb  Sb27  1  0.49484900  0.82104100  0.54222200  1
  Sb  Sb28  1  0.50136400  0.33538900  0.65525500  1
  Sb  Sb29  1  0.99513200  0.32154800  0.53873400  1
  Cl  Cl30  1  0.46342400  0.81853500  0.45926100  1
  O  O31  1  0.00000000  0.82836000  0.95506000  1
  O  O32  1  0.50000000  0.82836000  0.84126000  1
  O  O33  1  0.00019600  0.84474300  0.72934800  1
  O  O34  1  0.50637700  0.82255200  0.61299500  1
  O  O35  1  0.50000000  0.82836000  0.93115000  1
  O  O36  1  0.00000000  0.82836000  0.81736000  1
  O  O37  1  0.49823700  0.83439000  0.70254700  1
  O  O38  1  0.99256700  0.82573300  0.58095800  1
  O  O39  1  0.69747000  0.32836000  0.00000000  1
  O  O40  1  0.19747000  0.32836000  0.88621000  1
  O  O41  1  0.69747000  0.32836000  0.77241000  1
  O  O42  1  0.19213900  0.32993700  0.65779800  1
  O  O43  1  0.68814800  0.31301200  0.53550200  1
  O  O44  1  0.30253000  0.32836000  0.00000000  1
  O  O45  1  0.80253000  0.32836000  0.88621000  1
  O  O46  1  0.30253000  0.32836000  0.77241000  1
  O  O47  1  0.81016200  0.32916100  0.65891400  1
  O  O48  1  0.30247900  0.31377500  0.53797100  1
  O  O49  1  0.69747000  0.67164000  0.00000000  1
  O  O50  1  0.19747000  0.67164000  0.88621000  1
  O  O51  1  0.69747000  0.67164000  0.77241000  1
  O  O52  1  0.19552300  0.66256300  0.65825000  1
  O  O53  1  0.68551500  0.65892400  0.54134500  1
  O  O54  1  0.30253000  0.67164000  0.00000000  1
  O  O55  1  0.80253000  0.67164000  0.88621000  1
  O  O56  1  0.30253000  0.67164000  0.77241000  1
  O  O57  1  0.80620700  0.66281700  0.65964900  1
  O  O58  1  0.30463700  0.65859800  0.54603900  1
  O  O59  1  0.00000000  0.17164000  0.95506000  1
  O  O60  1  0.50000000  0.17164000  0.84126000  1
  O  O61  1  0.00021600  0.15531300  0.72933600  1
  O  O62  1  0.50363500  0.16255800  0.61566500  1
  O  O63  1  0.50000000  0.17164000  0.93115000  1
  O  O64  1  0.00000000  0.17164000  0.81736000  1
  O  O65  1  0.49822900  0.16264400  0.70279500  1
  O  O66  1  0.99200300  0.15594000  0.58494900  1
  O  O67  1  0.00000000  0.50000000  0.95668000  1
  O  O68  1  0.50000000  0.50000000  0.84289000  1
  O  O69  1  0.00049200  0.50002000  0.72830400  1
  O  O70  1  0.50716600  0.49294200  0.61436400  1
  O  O71  1  0.50000000  0.50000000  0.92952000  1
  O  O72  1  0.00000000  0.50000000  0.81573000  1
  O  O73  1  0.50028100  0.49554000  0.70277000  1
  O  O74  1  0.99246900  0.49481700  0.58462100  1
  O  O75  1  0.69034000  1.00000000  0.00000000  1
  O  O76  1  0.19034000  0.00000000  0.88621000  1
  O  O77  1  0.69034000  1.00000000  0.77241000  1
  O  O78  1  0.19332400  0.99352200  0.65577800  1
  O  O79  1  0.68388300  0.98669400  0.54166400  1
  O  O80  1  0.30966000  1.00000000  0.00000000  1
  O  O81  1  0.80966000  0.00000000  0.88621000  1
  O  O82  1  0.30966000  1.00000000  0.77241000  1
  O  O83  1  0.80657400  0.99291700  0.65650900  1
  O  O84  1  0.30884600  0.98811500  0.54817800  1
