# generated using pymatgen
data_MgTiMnVZnCrFeCoCuNiSb20ClO54
_symmetry_space_group_name_H-M   'P 1'
_cell_length_a   6.69537500
_cell_length_b   9.51384500
_cell_length_c   29.02323600
_cell_angle_alpha   89.84860500
_cell_angle_beta   89.94485700
_cell_angle_gamma   89.99319700
_symmetry_Int_Tables_number   1
_chemical_formula_structural   MgTiMnVZnCrFeCoCuNiSb20ClO54
_chemical_formula_sum
'Mg1 Ti1 Mn1 V1 Zn1 Cr1 Fe1 Co1 Cu1 Ni1 Sb20 Cl1 O54'
_cell_volume   1848.73682080
_cell_formula_units_Z   1
loop_
 _symmetry_equiv_pos_site_id
 _symmetry_equiv_pos_as_xyz
  1  'x, y, z'
loop_
 _atom_site_type_symbol
 _atom_site_label
 _atom_site_symmetry_multiplicity
 _atom_site_fract_x
 _atom_site_fract_y
 _atom_site_fract_z
 _atom_site_occupancy
  Mg  Mg0  1  0.49744900  0.48811800  0.54783000  1
  Ti  Ti1  1  0.99855800  0.80762100  0.65655500  1
  Mn  Mn2  1  1.00000000  0.33232000  0.77241000  1
  V  V3  1  1.00000000  0.50000000  0.88621000  1
  Zn  Zn4  1  0.50000000  0.00000000  0.88621000  1
  Cr  Cr5  1  0.00042100  0.50573000  0.66065200  1
  Fe  Fe6  1  0.49866600  0.16913800  0.54925100  1
  Co  Co7  1  0.49877500  0.66253900  0.65594500  1
  Cu  Cu8  1  1.00000000  0.83232000  0.88621000  1
  Ni  Ni9  1  0.00000000  0.00000000  0.00000000  1
  Sb  Sb10  1  1.00000000  0.00000000  0.77241000  1
  Sb  Sb11  1  0.50034100  0.99297600  0.65600200  1
  Sb  Sb12  1  0.99950800  0.00115100  0.54176800  1
  Sb  Sb13  1  0.50000000  0.50000000  1.00000000  1
  Sb  Sb14  1  0.50000000  0.50000000  0.77241000  1
  Sb  Sb15  1  1.00000000  0.66768000  1.00000000  1
  Sb  Sb16  1  0.50000000  0.66768000  0.88621000  1
  Sb  Sb17  1  1.00000000  0.66768000  0.77241000  1
  Sb  Sb18  1  0.00322600  0.66292700  0.54403400  1
  Sb  Sb19  1  0.50000000  0.16768000  1.00000000  1
  Sb  Sb20  1  1.00000000  0.16768000  0.88621000  1
  Sb  Sb21  1  0.50000000  0.16768000  0.77241000  1
  Sb  Sb22  1  0.00030900  0.16462000  0.65932900  1
  Sb  Sb23  1  0.50000000  0.83232000  1.00000000  1
  Sb  Sb24  1  0.50000000  0.83232000  0.77241000  1
  Sb  Sb25  1  0.49832700  0.80750100  0.54080800  1
  Sb  Sb26  1  0.00000000  0.33232000  1.00000000  1
  Sb  Sb27  1  0.50000000  0.33232000  0.88621000  1
  Sb  Sb28  1  0.50122800  0.34049400  0.65817700  1
  Sb  Sb29  1  0.99763700  0.33500000  0.54323100  1
  Cl  Cl30  1  0.47173500  0.58555800  0.47012600  1
  O  O31  1  1.00000000  0.82836000  0.95506000  1
  O  O32  1  0.50000000  0.82836000  0.84126000  1
  O  O33  1  0.00019600  0.84474300  0.72934800  1
  O  O34  1  0.50567800  0.83683900  0.61350500  1
  O  O35  1  0.50000000  0.82836000  0.93115000  1
  O  O36  1  1.00000000  0.82836000  0.81736000  1
  O  O37  1  0.49984400  0.83578000  0.70330100  1
  O  O38  1  0.99503300  0.84021400  0.58962600  1
  O  O39  1  0.69747000  0.32836000  0.00000000  1
  O  O40  1  0.19747000  0.32836000  0.88621000  1
  O  O41  1  0.69747000  0.32836000  0.77241000  1
  O  O42  1  0.19054300  0.33179200  0.66169800  1
  O  O43  1  0.68367500  0.31445900  0.54613600  1
  O  O44  1  0.30253000  0.32836000  1.00000000  1
  O  O45  1  0.80253000  0.32836000  0.88621000  1
  O  O46  1  0.30253000  0.32836000  0.77241000  1
  O  O47  1  0.81136900  0.33223500  0.66226500  1
  O  O48  1  0.31145600  0.31331400  0.54706600  1
  O  O49  1  0.69747000  0.67164000  1.00000000  1
  O  O50  1  0.19747000  0.67164000  0.88621000  1
  O  O51  1  0.69747000  0.67164000  0.77241000  1
  O  O52  1  0.18618800  0.67001700  0.66077200  1
  O  O53  1  0.70222900  0.65849800  0.55748300  1
  O  O54  1  0.30253000  0.67164000  1.00000000  1
  O  O55  1  0.80253000  0.67164000  0.88621000  1
  O  O56  1  0.30253000  0.67164000  0.77241000  1
  O  O57  1  0.81325200  0.66893700  0.66076400  1
  O  O58  1  0.29817000  0.66144600  0.56238700  1
  O  O59  1  1.00000000  0.17164000  0.95506000  1
  O  O60  1  0.50000000  0.17164000  0.84126000  1
  O  O61  1  0.00021600  0.15531300  0.72933600  1
  O  O62  1  0.50282800  0.16854200  0.61814100  1
  O  O63  1  0.50000000  0.17164000  0.93115000  1
  O  O64  1  1.00000000  0.17164000  0.81736000  1
  O  O65  1  0.50004100  0.16389500  0.70338100  1
  O  O66  1  0.99605000  0.16652800  0.58995300  1
  O  O67  1  1.00000000  0.50000000  0.95668000  1
  O  O68  1  0.50000000  0.50000000  0.84289000  1
  O  O69  1  0.00049200  0.50002000  0.72830400  1
  O  O70  1  0.50416200  0.49593400  0.61684600  1
  O  O71  1  0.50000000  0.50000000  0.92952000  1
  O  O72  1  1.00000000  0.50000000  0.81573000  1
  O  O73  1  0.49936900  0.50046500  0.70394500  1
  O  O74  1  0.99806400  0.49352900  0.59055900  1
  O  O75  1  0.69034000  1.00000000  0.00000000  1
  O  O76  1  0.19034000  0.00000000  0.88621000  1
  O  O77  1  0.69034000  1.00000000  0.77241000  1
  O  O78  1  0.19442300  0.99975100  0.65946200  1
  O  O79  1  0.69012000  0.03064400  0.54560400  1
  O  O80  1  0.30966000  0.00000000  1.00000000  1
  O  O81  1  0.80966000  1.00000000  0.88621000  1
  O  O82  1  0.30966000  0.00000000  0.77241000  1
  O  O83  1  0.80648000  0.99971400  0.66022600  1
  O  O84  1  0.30874600  0.02971500  0.54783300  1
