# generated using pymatgen
data_MgTiMnVZnCrFeCoCuNiSb20ClO54
_symmetry_space_group_name_H-M   'P 1'
_cell_length_a   6.67288800
_cell_length_b   9.45339100
_cell_length_c   29.65901500
_cell_angle_alpha   90.15014100
_cell_angle_beta   89.92061400
_cell_angle_gamma   89.98490600
_symmetry_Int_Tables_number   1
_chemical_formula_structural   MgTiMnVZnCrFeCoCuNiSb20ClO54
_chemical_formula_sum
'Mg1 Ti1 Mn1 V1 Zn1 Cr1 Fe1 Co1 Cu1 Ni1 Sb20 Cl1 O54'
_cell_volume   1870.92447690
_cell_formula_units_Z   1
loop_
 _symmetry_equiv_pos_site_id
 _symmetry_equiv_pos_as_xyz
  1  'x, y, z'
loop_
 _atom_site_type_symbol
 _atom_site_label
 _atom_site_symmetry_multiplicity
 _atom_site_fract_x
 _atom_site_fract_y
 _atom_site_fract_z
 _atom_site_occupancy
  Mg  Mg0  1  0.49831400  0.49748100  0.54383000  1
  Ti  Ti1  1  0.00000000  0.00000000  0.77241000  1
  Mn  Mn2  1  0.99982600  0.82391700  0.66030500  1
  V  V3  1  0.50000000  0.50000000  0.77241000  1
  Zn  Zn4  1  0.49987100  0.16062800  0.54930900  1
  Cr  Cr5  1  0.00000000  0.33232000  0.77241000  1
  Fe  Fe6  1  0.49955400  0.82700100  0.55115700  1
  Co  Co7  1  0.99995700  0.50701600  0.66288100  1
  Cu  Cu8  1  0.50000000  0.83232000  0.00000000  1
  Ni  Ni9  1  0.00000000  0.83232000  0.88621000  1
  Sb  Sb10  1  0.00000000  0.00000000  0.00000000  1
  Sb  Sb11  1  0.50000000  0.00000000  0.88621000  1
  Sb  Sb12  1  0.50019700  0.99985500  0.65834400  1
  Sb  Sb13  1  0.99852100  0.99229500  0.54574100  1
  Sb  Sb14  1  0.50000000  0.50000000  0.00000000  1
  Sb  Sb15  1  0.00000000  0.50000000  0.88621000  1
  Sb  Sb16  1  0.00000000  0.66768000  1.00000000  1
  Sb  Sb17  1  0.50000000  0.66768000  0.88621000  1
  Sb  Sb18  1  0.00000000  0.66768000  0.77241000  1
  Sb  Sb19  1  0.50003500  0.66381700  0.65915800  1
  Sb  Sb20  1  0.00080300  0.66727900  0.54820500  1
  Sb  Sb21  1  0.50000000  0.16768000  0.00000000  1
  Sb  Sb22  1  0.00000000  0.16768000  0.88621000  1
  Sb  Sb23  1  0.50000000  0.16768000  0.77241000  1
  Sb  Sb24  1  0.99958300  0.16488200  0.66160900  1
  Sb  Sb25  1  0.50000000  0.83232000  0.77241000  1
  Sb  Sb26  1  1.00000000  0.33232000  0.00000000  1
  Sb  Sb27  1  0.50000000  0.33232000  0.88621000  1
  Sb  Sb28  1  0.50027000  0.33570000  0.65932900  1
  Sb  Sb29  1  0.99965300  0.33745400  0.55009100  1
  Cl  Cl30  1  0.46454100  0.53343700  0.46677600  1
  O  O31  1  0.00000000  0.82836000  0.95506000  1
  O  O32  1  0.50000000  0.82836000  0.84126000  1
  O  O33  1  0.00019600  0.84474300  0.72934800  1
  O  O34  1  0.50366500  0.83423300  0.61885800  1
  O  O35  1  0.50000000  0.82836000  0.93115000  1
  O  O36  1  0.00000000  0.82836000  0.81736000  1
  O  O37  1  0.49867100  0.83830800  0.70528700  1
  O  O38  1  0.99749200  0.83451500  0.59313100  1
  O  O39  1  0.69747000  0.32836000  0.00000000  1
  O  O40  1  0.19747000  0.32836000  0.88621000  1
  O  O41  1  0.69747000  0.32836000  0.77241000  1
  O  O42  1  0.19557100  0.32865800  0.66192900  1
  O  O43  1  0.69901400  0.32358500  0.54860100  1
  O  O44  1  0.30253000  0.32836000  0.00000000  1
  O  O45  1  0.80253000  0.32836000  0.88621000  1
  O  O46  1  0.30253000  0.32836000  0.77241000  1
  O  O47  1  0.80465300  0.32911600  0.66229400  1
  O  O48  1  0.29955700  0.32094400  0.54980500  1
  O  O49  1  0.69747000  0.67164000  1.00000000  1
  O  O50  1  0.19747000  0.67164000  0.88621000  1
  O  O51  1  0.69747000  0.67164000  0.77241000  1
  O  O52  1  0.19933000  0.67350600  0.66293300  1
  O  O53  1  0.68604200  0.68537100  0.55127600  1
  O  O54  1  0.30253000  0.67164000  1.00000000  1
  O  O55  1  0.80253000  0.67164000  0.88621000  1
  O  O56  1  0.30253000  0.67164000  0.77241000  1
  O  O57  1  0.80070600  0.67335300  0.66319400  1
  O  O58  1  0.31442300  0.68635100  0.55428000  1
  O  O59  1  0.00000000  0.17164000  0.95506000  1
  O  O60  1  0.50000000  0.17164000  0.84126000  1
  O  O61  1  0.00021600  0.15531300  0.72933600  1
  O  O62  1  0.50280700  0.16672100  0.61873500  1
  O  O63  1  0.50000000  0.17164000  0.93115000  1
  O  O64  1  0.00000000  0.17164000  0.81736000  1
  O  O65  1  0.49900000  0.16362900  0.70470400  1
  O  O66  1  0.99629600  0.15919000  0.59286400  1
  O  O67  1  0.00000000  0.50000000  0.95668000  1
  O  O68  1  0.50000000  0.50000000  0.84289000  1
  O  O69  1  0.00049200  0.50002000  0.72830400  1
  O  O70  1  0.50110800  0.49748700  0.61734900  1
  O  O71  1  0.50000000  0.50000000  0.92952000  1
  O  O72  1  0.00000000  0.50000000  0.81573000  1
  O  O73  1  0.49995600  0.49813300  0.70674600  1
  O  O74  1  0.99869800  0.50435000  0.59498700  1
  O  O75  1  0.69034000  1.00000000  0.00000000  1
  O  O76  1  0.19034000  0.00000000  0.88621000  1
  O  O77  1  0.69034000  0.00000000  0.77241000  1
  O  O78  1  0.19425200  0.99770200  0.66077100  1
  O  O79  1  0.68138000  0.98033400  0.54699800  1
  O  O80  1  0.30966000  1.00000000  0.00000000  1
  O  O81  1  0.80966000  0.00000000  0.88621000  1
  O  O82  1  0.30966000  0.00000000  0.77241000  1
  O  O83  1  0.80647400  0.99712300  0.66147100  1
  O  O84  1  0.31671600  0.97848700  0.54786400  1
