# generated using pymatgen
data_MgTiMnVZnCrFeCoCuNiSb20ClO54
_symmetry_space_group_name_H-M   'P 1'
_cell_length_a   6.61113100
_cell_length_b   9.59965000
_cell_length_c   29.02449100
_cell_angle_alpha   90.11294200
_cell_angle_beta   89.97757200
_cell_angle_gamma   89.94169700
_symmetry_Int_Tables_number   1
_chemical_formula_structural   MgTiMnVZnCrFeCoCuNiSb20ClO54
_chemical_formula_sum
'Mg1 Ti1 Mn1 V1 Zn1 Cr1 Fe1 Co1 Cu1 Ni1 Sb20 Cl1 O54'
_cell_volume   1842.02140256
_cell_formula_units_Z   1
loop_
 _symmetry_equiv_pos_site_id
 _symmetry_equiv_pos_as_xyz
  1  'x, y, z'
loop_
 _atom_site_type_symbol
 _atom_site_label
 _atom_site_symmetry_multiplicity
 _atom_site_fract_x
 _atom_site_fract_y
 _atom_site_fract_z
 _atom_site_occupancy
  Mg  Mg0  1  0.49674200  0.52186900  0.54673700  1
  Ti  Ti1  1  0.00000000  0.16768000  0.88621000  1
  Mn  Mn2  1  0.00000000  0.66768000  1.00000000  1
  V  V3  1  0.50000000  0.83232000  1.00000000  1
  Zn  Zn4  1  0.00000000  0.33232000  0.77241000  1
  Cr  Cr5  1  0.50000000  0.16768000  1.00000000  1
  Fe  Fe6  1  0.49885200  0.66599900  0.65985200  1
  Co  Co7  1  0.50183300  0.83523700  0.54910500  1
  Cu  Cu8  1  0.00000000  0.50000000  0.88621000  1
  Ni  Ni9  1  0.00000000  0.33232000  1.00000000  1
  Sb  Sb10  1  0.00000000  0.00000000  0.00000000  1
  Sb  Sb11  1  0.50000000  0.00000000  0.88621000  1
  Sb  Sb12  1  1.00000000  0.00000000  0.77241000  1
  Sb  Sb13  1  0.49868600  0.99266700  0.65568700  1
  Sb  Sb14  1  0.00422400  0.00697200  0.54043900  1
  Sb  Sb15  1  0.50000000  0.50000000  0.00000000  1
  Sb  Sb16  1  0.50000000  0.50000000  0.77241000  1
  Sb  Sb17  1  0.99673600  0.50819000  0.65731300  1
  Sb  Sb18  1  0.50000000  0.66768000  0.88621000  1
  Sb  Sb19  1  0.00000000  0.66768000  0.77241000  1
  Sb  Sb20  1  0.99621500  0.69634300  0.52908200  1
  Sb  Sb21  1  0.50000000  0.16768000  0.77241000  1
  Sb  Sb22  1  0.99517300  0.16496300  0.65975200  1
  Sb  Sb23  1  0.49873600  0.18503500  0.53709200  1
  Sb  Sb24  1  0.00000000  0.83232000  0.88621000  1
  Sb  Sb25  1  0.50000000  0.83232000  0.77241000  1
  Sb  Sb26  1  0.00021000  0.83011600  0.65468300  1
  Sb  Sb27  1  0.50000000  0.33232000  0.88621000  1
  Sb  Sb28  1  0.49539400  0.33956500  0.65022300  1
  Sb  Sb29  1  0.01072000  0.33404400  0.53595500  1
  Cl  Cl30  1  0.38904300  0.42736100  0.47238800  1
  O  O31  1  0.00000000  0.82836000  0.95506000  1
  O  O32  1  0.50000000  0.82836000  0.84126000  1
  O  O33  1  0.00019600  0.84474300  0.72934800  1
  O  O34  1  0.50188000  0.83034000  0.61652900  1
  O  O35  1  0.50000000  0.82836000  0.93115000  1
  O  O36  1  0.00000000  0.82836000  0.81736000  1
  O  O37  1  0.49715200  0.84165100  0.70442000  1
  O  O38  1  0.99919300  0.83703400  0.58709200  1
  O  O39  1  0.69747000  0.32836000  1.00000000  1
  O  O40  1  0.19747000  0.32836000  0.88621000  1
  O  O41  1  0.69747000  0.32836000  0.77241000  1
  O  O42  1  0.19953300  0.31433100  0.66527600  1
  O  O43  1  0.70452500  0.34226200  0.55599500  1
  O  O44  1  0.30253000  0.32836000  1.00000000  1
  O  O45  1  0.80253000  0.32836000  0.88621000  1
  O  O46  1  0.30253000  0.32836000  0.77241000  1
  O  O47  1  0.79477300  0.31626000  0.66568900  1
  O  O48  1  0.29629800  0.32312000  0.56663700  1
  O  O49  1  0.69747000  0.67164000  1.00000000  1
  O  O50  1  0.19747000  0.67164000  0.88621000  1
  O  O51  1  0.69747000  0.67164000  0.77241000  1
  O  O52  1  0.19950500  0.68422800  0.66495100  1
  O  O53  1  0.68960900  0.68924400  0.54045400  1
  O  O54  1  0.30253000  0.67164000  1.00000000  1
  O  O55  1  0.80253000  0.67164000  0.88621000  1
  O  O56  1  0.30253000  0.67164000  0.77241000  1
  O  O57  1  0.79779500  0.68472400  0.66536600  1
  O  O58  1  0.31475100  0.70045900  0.54171200  1
  O  O59  1  1.00000000  0.17164000  0.95506000  1
  O  O60  1  0.50000000  0.17164000  0.84126000  1
  O  O61  1  0.00021600  0.15531300  0.72933600  1
  O  O62  1  0.52117700  0.15607900  0.61297600  1
  O  O63  1  0.50000000  0.17164000  0.93115000  1
  O  O64  1  1.00000000  0.17164000  0.81736000  1
  O  O65  1  0.49733700  0.15498600  0.70130500  1
  O  O66  1  0.98135400  0.15659000  0.59126700  1
  O  O67  1  1.00000000  0.50000000  0.95668000  1
  O  O68  1  0.50000000  0.50000000  0.84289000  1
  O  O69  1  0.00049200  0.50002000  0.72830400  1
  O  O70  1  0.49952100  0.51787000  0.61624000  1
  O  O71  1  0.50000000  0.50000000  0.92952000  1
  O  O72  1  0.00000000  0.50000000  0.81573000  1
  O  O73  1  0.49871000  0.50057100  0.70223300  1
  O  O74  1  0.01585700  0.52208700  0.56488700  1
  O  O75  1  0.69034000  1.00000000  0.00000000  1
  O  O76  1  0.19034000  0.00000000  0.88621000  1
  O  O77  1  0.69034000  0.00000000  0.77241000  1
  O  O78  1  0.18904900  0.99753700  0.65885800  1
  O  O79  1  0.68922800  0.97421900  0.54548100  1
  O  O80  1  0.30966000  1.00000000  0.00000000  1
  O  O81  1  0.80966000  0.00000000  0.88621000  1
  O  O82  1  0.30966000  0.00000000  0.77241000  1
  O  O83  1  0.80880600  0.99465100  0.66116300  1
  O  O84  1  0.31106200  0.98818300  0.55040300  1
