# generated using pymatgen
data_MgTiMnVZnCrFeCoCuNiSb20ClO54
_symmetry_space_group_name_H-M   'P 1'
_cell_length_a   6.66615300
_cell_length_b   9.45100100
_cell_length_c   29.15573900
_cell_angle_alpha   90.40780400
_cell_angle_beta   89.84417300
_cell_angle_gamma   89.96617900
_symmetry_Int_Tables_number   1
_chemical_formula_structural   MgTiMnVZnCrFeCoCuNiSb20ClO54
_chemical_formula_sum
'Mg1 Ti1 Mn1 V1 Zn1 Cr1 Fe1 Co1 Cu1 Ni1 Sb20 Cl1 O54'
_cell_volume   1836.81092028
_cell_formula_units_Z   1
loop_
 _symmetry_equiv_pos_site_id
 _symmetry_equiv_pos_as_xyz
  1  'x, y, z'
loop_
 _atom_site_type_symbol
 _atom_site_label
 _atom_site_symmetry_multiplicity
 _atom_site_fract_x
 _atom_site_fract_y
 _atom_site_fract_z
 _atom_site_occupancy
  Mg  Mg0  1  0.50238500  0.48700000  0.54844800  1
  Ti  Ti1  1  0.51244300  0.81290300  0.53758100  1
  Mn  Mn2  1  0.00122800  0.49732100  0.66271200  1
  V  V3  1  0.50000000  0.66768000  0.88621000  1
  Zn  Zn4  1  0.50612500  0.15488000  0.54437000  1
  Cr  Cr5  1  0.50000000  0.50000000  0.77241000  1
  Fe  Fe6  1  0.00000000  0.83232000  0.88621000  1
  Co  Co7  1  0.50000000  0.83232000  1.00000000  1
  Cu  Cu8  1  0.00000000  0.16768000  0.88621000  1
  Ni  Ni9  1  0.00000000  0.33232000  0.77241000  1
  Sb  Sb10  1  0.00000000  0.00000000  0.00000000  1
  Sb  Sb11  1  0.50000000  1.00000000  0.88621000  1
  Sb  Sb12  1  0.00000000  1.00000000  0.77241000  1
  Sb  Sb13  1  0.49958500  0.99702700  0.65302000  1
  Sb  Sb14  1  0.00626100  0.00086500  0.53355200  1
  Sb  Sb15  1  0.50000000  0.50000000  1.00000000  1
  Sb  Sb16  1  0.00000000  0.50000000  0.88621000  1
  Sb  Sb17  1  0.00000000  0.33232000  0.00000000  1
  Sb  Sb18  1  0.50000000  0.33232000  0.88621000  1
  Sb  Sb19  1  0.49717800  0.33016800  0.66101400  1
  Sb  Sb20  1  0.00541200  0.32917600  0.54550500  1
  Sb  Sb21  1  0.50000000  0.83232000  0.77241000  1
  Sb  Sb22  1  0.00335100  0.82033300  0.64974000  1
  Sb  Sb23  1  0.50000000  0.16768000  1.00000000  1
  Sb  Sb24  1  0.50000000  0.16768000  0.77241000  1
  Sb  Sb25  1  0.99763000  0.16738000  0.66031500  1
  Sb  Sb26  1  0.00000000  0.66768000  0.00000000  1
  Sb  Sb27  1  0.00000000  0.66768000  0.77241000  1
  Sb  Sb28  1  0.50271100  0.65721100  0.65730400  1
  Sb  Sb29  1  0.00447500  0.64601000  0.53887900  1
  Cl  Cl30  1  0.56647200  0.78183900  0.46134600  1
  O  O31  1  0.00000000  0.17164000  0.95506000  1
  O  O32  1  0.50000000  0.17164000  0.84126000  1
  O  O33  1  0.99980400  0.15525700  0.72934800  1
  O  O34  1  0.49786000  0.16863800  0.61505800  1
  O  O35  1  0.50000000  0.17164000  0.93115000  1
  O  O36  1  0.00000000  0.17164000  0.81736000  1
  O  O37  1  0.49451900  0.15518000  0.70293700  1
  O  O38  1  0.00736500  0.15787500  0.59027800  1
  O  O39  1  0.30253000  0.67164000  0.00000000  1
  O  O40  1  0.80253000  0.67164000  0.88621000  1
  O  O41  1  0.30253000  0.67164000  0.77241000  1
  O  O42  1  0.79829100  0.65312400  0.66145900  1
  O  O43  1  0.31704000  0.66410500  0.54523000  1
  O  O44  1  0.69747000  0.67164000  1.00000000  1
  O  O45  1  0.19747000  0.67164000  0.88621000  1
  O  O46  1  0.69747000  0.67164000  0.77241000  1
  O  O47  1  0.20670600  0.65501400  0.66214900  1
  O  O48  1  0.69724200  0.66326100  0.55197600  1
  O  O49  1  0.30253000  0.32836000  0.00000000  1
  O  O50  1  0.80253000  0.32836000  0.88621000  1
  O  O51  1  0.30253000  0.32836000  0.77241000  1
  O  O52  1  0.79926400  0.32639500  0.66214200  1
  O  O53  1  0.30910200  0.31982500  0.53926000  1
  O  O54  1  0.69747000  0.32836000  1.00000000  1
  O  O55  1  0.19747000  0.32836000  0.88621000  1
  O  O56  1  0.69747000  0.32836000  0.77241000  1
  O  O57  1  0.19541600  0.32687200  0.66263100  1
  O  O58  1  0.70147200  0.32146000  0.54088700  1
  O  O59  1  0.00000000  0.82836000  0.95506000  1
  O  O60  1  0.50000000  0.82836000  0.84126000  1
  O  O61  1  0.99978400  0.84468700  0.72933600  1
  O  O62  1  0.49621000  0.82449900  0.61391400  1
  O  O63  1  0.50000000  0.82836000  0.93115000  1
  O  O64  1  0.00000000  0.82836000  0.81736000  1
  O  O65  1  0.50143300  0.83464800  0.70208500  1
  O  O66  1  0.01284000  0.82794000  0.57720500  1
  O  O67  1  0.00000000  0.50000000  0.95668000  1
  O  O68  1  0.50000000  0.50000000  0.84289000  1
  O  O69  1  0.99950800  0.49998000  0.72830400  1
  O  O70  1  0.49685400  0.48695400  0.61667100  1
  O  O71  1  0.50000000  0.50000000  0.92952000  1
  O  O72  1  0.00000000  0.50000000  0.81573000  1
  O  O73  1  0.49849200  0.49786700  0.70501000  1
  O  O74  1  0.01002700  0.49449400  0.59317300  1
  O  O75  1  0.30966000  0.00000000  0.00000000  1
  O  O76  1  0.80966000  1.00000000  0.88621000  1
  O  O77  1  0.30966000  0.00000000  0.77241000  1
  O  O78  1  0.79562700  0.00595300  0.65933900  1
  O  O79  1  0.31921700  0.97326100  0.53933000  1
  O  O80  1  0.69034000  1.00000000  1.00000000  1
  O  O81  1  0.19034000  0.00000000  0.88621000  1
  O  O82  1  0.69034000  1.00000000  0.77241000  1
  O  O83  1  0.20197600  0.00583500  0.65963000  1
  O  O84  1  0.69707600  0.97532400  0.54525900  1
