# generated using pymatgen
data_MgTiMnVZnCrFeCoCuNiSb20ClO54
_symmetry_space_group_name_H-M   'P 1'
_cell_length_a   6.70167500
_cell_length_b   9.44947900
_cell_length_c   28.94562800
_cell_angle_alpha   89.72560900
_cell_angle_beta   89.87012800
_cell_angle_gamma   89.97901200
_symmetry_Int_Tables_number   1
_chemical_formula_structural   MgTiMnVZnCrFeCoCuNiSb20ClO54
_chemical_formula_sum
'Mg1 Ti1 Mn1 V1 Zn1 Cr1 Fe1 Co1 Cu1 Ni1 Sb20 Cl1 O54'
_cell_volume   1833.02369916
_cell_formula_units_Z   1
loop_
 _symmetry_equiv_pos_site_id
 _symmetry_equiv_pos_as_xyz
  1  'x, y, z'
loop_
 _atom_site_type_symbol
 _atom_site_label
 _atom_site_symmetry_multiplicity
 _atom_site_fract_x
 _atom_site_fract_y
 _atom_site_fract_z
 _atom_site_occupancy
  Mg  Mg0  1  0.50116100  0.47716800  0.44478500  1
  Ti  Ti1  1  0.99955700  0.48207600  0.33759500  1
  Mn  Mn2  1  0.50000000  0.83232000  0.22759000  1
  V  V3  1  0.00000000  1.00000000  0.22759000  1
  Zn  Zn4  1  0.00000000  0.33232000  0.22759000  1
  Cr  Cr5  1  0.50000000  0.66768000  0.11379000  1
  Fe  Fe6  1  0.00000000  0.50000000  0.11379000  1
  Co  Co7  1  1.00000000  0.66768000  1.00000000  1
  Cu  Cu8  1  0.50056300  0.32405900  0.34000500  1
  Ni  Ni9  1  0.50000000  0.50000000  1.00000000  1
  Sb  Sb10  1  0.00000000  0.00000000  0.00000000  1
  Sb  Sb11  1  0.50000000  1.00000000  0.11379000  1
  Sb  Sb12  1  0.50055200  0.99835300  0.34402800  1
  Sb  Sb13  1  0.00024900  0.99241600  0.46541000  1
  Sb  Sb14  1  0.50000000  0.50000000  0.22759000  1
  Sb  Sb15  1  0.00000000  0.66768000  0.22759000  1
  Sb  Sb16  1  0.49970100  0.64972300  0.34199700  1
  Sb  Sb17  1  0.00119300  0.64318200  0.46330200  1
  Sb  Sb18  1  0.50000000  0.16768000  1.00000000  1
  Sb  Sb19  1  0.00000000  0.16768000  0.11379000  1
  Sb  Sb20  1  0.50000000  0.16768000  0.22759000  1
  Sb  Sb21  1  0.00040500  0.16585700  0.33905700  1
  Sb  Sb22  1  0.49933100  0.15992200  0.46466200  1
  Sb  Sb23  1  0.50000000  0.83232000  1.00000000  1
  Sb  Sb24  1  0.00000000  0.83232000  0.11379000  1
  Sb  Sb25  1  0.99839700  0.81584100  0.34571700  1
  Sb  Sb26  1  0.50050800  0.79142600  0.45944900  1
  Sb  Sb27  1  1.00000000  0.33232000  1.00000000  1
  Sb  Sb28  1  0.50000000  0.33232000  0.11379000  1
  Sb  Sb29  1  0.99945900  0.32347200  0.45950900  1
  Cl  Cl30  1  0.50140800  0.69567000  0.53743000  1
  O  O31  1  0.00000000  0.82836000  0.04494000  1
  O  O32  1  0.50000000  0.82836000  0.15874000  1
  O  O33  1  0.99980400  0.84474300  0.27065200  1
  O  O34  1  0.50339400  0.82162900  0.38664400  1
  O  O35  1  0.50000000  0.82836000  0.06885000  1
  O  O36  1  0.00000000  0.82836000  0.18264000  1
  O  O37  1  0.50182000  0.82788400  0.30060800  1
  O  O38  1  0.00468400  0.82257200  0.42258600  1
  O  O39  1  0.30253000  0.32836000  1.00000000  1
  O  O40  1  0.80253000  0.32836000  0.11379000  1
  O  O41  1  0.30253000  0.32836000  0.22759000  1
  O  O42  1  0.81076200  0.32599100  0.34053800  1
  O  O43  1  0.30406200  0.32247200  0.45488900  1
  O  O44  1  0.69747000  0.32836000  1.00000000  1
  O  O45  1  0.19747000  0.32836000  0.11379000  1
  O  O46  1  0.69747000  0.32836000  0.22759000  1
  O  O47  1  0.18903000  0.32602300  0.34029400  1
  O  O48  1  0.69579500  0.32020300  0.45367200  1
  O  O49  1  0.30253000  0.67164000  1.00000000  1
  O  O50  1  0.80253000  0.67164000  0.11379000  1
  O  O51  1  0.30253000  0.67164000  0.22759000  1
  O  O52  1  0.80091800  0.63693800  0.34051900  1
  O  O53  1  0.30465700  0.64244000  0.44498600  1
  O  O54  1  0.69747000  0.67164000  1.00000000  1
  O  O55  1  0.19747000  0.67164000  0.11379000  1
  O  O56  1  0.69747000  0.67164000  0.22759000  1
  O  O57  1  0.19881600  0.64015000  0.34091400  1
  O  O58  1  0.69709700  0.64239400  0.44504200  1
  O  O59  1  0.00000000  0.17164000  0.04494000  1
  O  O60  1  0.50000000  0.17164000  0.15874000  1
  O  O61  1  0.99978400  0.15531300  0.27066400  1
  O  O62  1  0.49393500  0.13463000  0.39418000  1
  O  O63  1  0.50000000  0.17164000  0.06885000  1
  O  O64  1  0.00000000  0.17164000  0.18264000  1
  O  O65  1  0.50253000  0.15946500  0.29850400  1
  O  O66  1  0.99957400  0.15095400  0.41235400  1
  O  O67  1  0.00000000  0.50000000  0.04332000  1
  O  O68  1  0.50000000  0.50000000  0.15711000  1
  O  O69  1  0.99950800  0.50002000  0.27169600  1
  O  O70  1  0.49698500  0.48140000  0.37926400  1
  O  O71  1  0.50000000  0.50000000  0.07048000  1
  O  O72  1  0.00000000  0.50000000  0.18427000  1
  O  O73  1  0.49921100  0.50199900  0.29347500  1
  O  O74  1  0.00052800  0.48807400  0.41312700  1
  O  O75  1  0.30966000  0.00000000  1.00000000  1
  O  O76  1  0.80966000  1.00000000  0.11379000  1
  O  O77  1  0.30966000  1.00000000  0.22759000  1
  O  O78  1  0.80054400  0.00332400  0.34382700  1
  O  O79  1  0.30621300  0.94721600  0.46991700  1
  O  O80  1  0.69034000  0.00000000  1.00000000  1
  O  O81  1  0.19034000  1.00000000  0.11379000  1
  O  O82  1  0.69034000  1.00000000  0.22759000  1
  O  O83  1  0.19860600  0.00098900  0.34216800  1
  O  O84  1  0.69738100  0.94613000  0.46952900  1
