# generated using pymatgen
data_MgTiMnVZnCrFeCoCuNiSb20ClO54
_symmetry_space_group_name_H-M   'P 1'
_cell_length_a   6.78352100
_cell_length_b   9.52951100
_cell_length_c   29.48427100
_cell_angle_alpha   89.96756300
_cell_angle_beta   89.40020000
_cell_angle_gamma   89.68270200
_symmetry_Int_Tables_number   1
_chemical_formula_structural   MgTiMnVZnCrFeCoCuNiSb20ClO54
_chemical_formula_sum
'Mg1 Ti1 Mn1 V1 Zn1 Cr1 Fe1 Co1 Cu1 Ni1 Sb20 Cl1 O54'
_cell_volume   1905.83663411
_cell_formula_units_Z   1
loop_
 _symmetry_equiv_pos_site_id
 _symmetry_equiv_pos_as_xyz
  1  'x, y, z'
loop_
 _atom_site_type_symbol
 _atom_site_label
 _atom_site_symmetry_multiplicity
 _atom_site_fract_x
 _atom_site_fract_y
 _atom_site_fract_z
 _atom_site_occupancy
  Mg  Mg0  1  0.50916700  0.49006100  0.44513500  1
  Ti  Ti1  1  0.43860700  0.79429100  0.43975300  1
  Mn  Mn2  1  0.48837700  0.34103100  0.33979000  1
  V  V3  1  0.50000000  0.16768000  1.00000000  1
  Zn  Zn4  1  0.00000000  0.00000000  0.22759000  1
  Cr  Cr5  1  0.04832000  0.99410400  0.44357800  1
  Fe  Fe6  1  0.48748100  0.65169600  0.33834600  1
  Co  Co7  1  0.98779400  0.50116900  0.34197800  1
  Cu  Cu8  1  0.00000000  0.33232000  1.00000000  1
  Ni  Ni9  1  0.50000000  1.00000000  0.11379000  1
  Sb  Sb10  1  0.00000000  0.00000000  0.00000000  1
  Sb  Sb11  1  0.48743000  0.99946000  0.33682600  1
  Sb  Sb12  1  0.50000000  0.50000000  1.00000000  1
  Sb  Sb13  1  0.00000000  0.50000000  0.11379000  1
  Sb  Sb14  1  0.50000000  0.50000000  0.22759000  1
  Sb  Sb15  1  1.00000000  0.66768000  0.00000000  1
  Sb  Sb16  1  0.50000000  0.66768000  0.11379000  1
  Sb  Sb17  1  0.00000000  0.66768000  0.22759000  1
  Sb  Sb18  1  0.96071100  0.66999300  0.45956400  1
  Sb  Sb19  1  0.00000000  0.16768000  0.11379000  1
  Sb  Sb20  1  0.50000000  0.16768000  0.22759000  1
  Sb  Sb21  1  0.99107200  0.18012900  0.33877000  1
  Sb  Sb22  1  0.51659400  0.17231800  0.44954000  1
  Sb  Sb23  1  0.50000000  0.83232000  0.00000000  1
  Sb  Sb24  1  0.00000000  0.83232000  0.11379000  1
  Sb  Sb25  1  0.50000000  0.83232000  0.22759000  1
  Sb  Sb26  1  0.98965400  0.81955700  0.33867200  1
  Sb  Sb27  1  0.50000000  0.33232000  0.11379000  1
  Sb  Sb28  1  0.00000000  0.33232000  0.22759000  1
  Sb  Sb29  1  0.98653000  0.32849200  0.45684200  1
  Cl  Cl30  1  0.71393300  0.48917400  0.51758600  1
  O  O31  1  0.00000000  0.82836000  0.04494000  1
  O  O32  1  0.50000000  0.82836000  0.15874000  1
  O  O33  1  0.99980400  0.84474300  0.27065200  1
  O  O34  1  0.47068500  0.83509000  0.37888700  1
  O  O35  1  0.50000000  0.82836000  0.06885000  1
  O  O36  1  0.00000000  0.82836000  0.18264000  1
  O  O37  1  0.49867200  0.82945200  0.29452600  1
  O  O38  1  0.00327900  0.83525000  0.40891000  1
  O  O39  1  0.30253000  0.32836000  1.00000000  1
  O  O40  1  0.80253000  0.32836000  0.11379000  1
  O  O41  1  0.30253000  0.32836000  0.22759000  1
  O  O42  1  0.79184800  0.33523700  0.33764900  1
  O  O43  1  0.31898200  0.32293900  0.45519600  1
  O  O44  1  0.69747000  0.32836000  1.00000000  1
  O  O45  1  0.19747000  0.32836000  0.11379000  1
  O  O46  1  0.69747000  0.32836000  0.22759000  1
  O  O47  1  0.18525500  0.33760700  0.33939300  1
  O  O48  1  0.70345300  0.32242000  0.43308100  1
  O  O49  1  0.30253000  0.67164000  0.00000000  1
  O  O50  1  0.80253000  0.67164000  0.11379000  1
  O  O51  1  0.30253000  0.67164000  0.22759000  1
  O  O52  1  0.79266100  0.66735400  0.34012900  1
  O  O53  1  0.29170300  0.64624500  0.44875000  1
  O  O54  1  0.69747000  0.67164000  0.00000000  1
  O  O55  1  0.19747000  0.67164000  0.11379000  1
  O  O56  1  0.69747000  0.67164000  0.22759000  1
  O  O57  1  0.18522400  0.66516900  0.33833500  1
  O  O58  1  0.66925100  0.70234800  0.44676000  1
  O  O59  1  0.00000000  0.17164000  0.04494000  1
  O  O60  1  0.50000000  0.17164000  0.15874000  1
  O  O61  1  0.99978400  0.15531300  0.27066400  1
  O  O62  1  0.47414700  0.16245900  0.38032800  1
  O  O63  1  0.50000000  0.17164000  0.06885000  1
  O  O64  1  0.00000000  0.17164000  0.18264000  1
  O  O65  1  0.49020200  0.17363700  0.29549100  1
  O  O66  1  0.02035000  0.15498300  0.40899900  1
  O  O67  1  1.00000000  0.50000000  0.04332000  1
  O  O68  1  0.50000000  0.50000000  0.15711000  1
  O  O69  1  0.99950800  0.50002000  0.27169600  1
  O  O70  1  0.48560900  0.48891800  0.37770700  1
  O  O71  1  0.50000000  0.50000000  0.07048000  1
  O  O72  1  0.00000000  0.50000000  0.18427000  1
  O  O73  1  0.49346700  0.48962100  0.29494300  1
  O  O74  1  0.97847800  0.50465300  0.41584400  1
  O  O75  1  0.30966000  0.00000000  0.00000000  1
  O  O76  1  0.80966000  1.00000000  0.11379000  1
  O  O77  1  0.30966000  0.00000000  0.22759000  1
  O  O78  1  0.79587900  0.99968900  0.34134500  1
  O  O79  1  0.29671500  0.95596700  0.46056300  1
  O  O80  1  0.69034000  1.00000000  0.00000000  1
  O  O81  1  0.19034000  0.00000000  0.11379000  1
  O  O82  1  0.69034000  1.00000000  0.22759000  1
  O  O83  1  0.18025000  0.99966500  0.33878100  1
  O  O84  1  0.89372100  0.00384500  0.48461900  1
