# generated using pymatgen
data_MgTiMnVZnCrFeCoCuNiSb20ClO54
_symmetry_space_group_name_H-M   'P 1'
_cell_length_a   6.64911700
_cell_length_b   9.60985400
_cell_length_c   29.27599000
_cell_angle_alpha   89.72157800
_cell_angle_beta   89.91178800
_cell_angle_gamma   89.98994700
_symmetry_Int_Tables_number   1
_chemical_formula_structural   MgTiMnVZnCrFeCoCuNiSb20ClO54
_chemical_formula_sum
'Mg1 Ti1 Mn1 V1 Zn1 Cr1 Fe1 Co1 Cu1 Ni1 Sb20 Cl1 O54'
_cell_volume   1870.62487971
_cell_formula_units_Z   1
loop_
 _symmetry_equiv_pos_site_id
 _symmetry_equiv_pos_as_xyz
  1  'x, y, z'
loop_
 _atom_site_type_symbol
 _atom_site_label
 _atom_site_symmetry_multiplicity
 _atom_site_fract_x
 _atom_site_fract_y
 _atom_site_fract_z
 _atom_site_occupancy
  Mg  Mg0  1  0.49858800  0.49516200  0.46254100  1
  Ti  Ti1  1  0.99783400  0.33973500  0.44557400  1
  Mn  Mn2  1  0.00046100  0.66118800  0.45004000  1
  V  V3  1  0.00000000  0.66768000  0.00000000  1
  Zn  Zn4  1  0.50000000  0.83232000  0.00000000  1
  Cr  Cr5  1  0.99981900  0.16783500  0.33400200  1
  Fe  Fe6  1  0.50062500  0.99882500  0.34504700  1
  Co  Co7  1  0.50000000  0.50000000  0.22759000  1
  Cu  Cu8  1  0.00000000  0.00000000  0.22759000  1
  Ni  Ni9  1  0.50000000  0.00000000  0.11379000  1
  Sb  Sb10  1  0.00000000  0.00000000  0.00000000  1
  Sb  Sb11  1  0.00163400  0.00987400  0.42272100  1
  Sb  Sb12  1  0.50000000  0.50000000  0.00000000  1
  Sb  Sb13  1  0.00000000  0.50000000  0.11379000  1
  Sb  Sb14  1  0.00022400  0.48979900  0.34143800  1
  Sb  Sb15  1  0.50000000  0.66768000  0.11379000  1
  Sb  Sb16  1  0.00000000  0.66768000  0.22759000  1
  Sb  Sb17  1  0.50000900  0.66270400  0.34302300  1
  Sb  Sb18  1  0.50000000  0.16768000  0.00000000  1
  Sb  Sb19  1  0.00000000  0.16768000  0.11379000  1
  Sb  Sb20  1  0.50000000  0.16768000  0.22759000  1
  Sb  Sb21  1  0.49929100  0.17631000  0.46154300  1
  Sb  Sb22  1  0.00000000  0.83232000  0.11379000  1
  Sb  Sb23  1  0.50000000  0.83232000  0.22759000  1
  Sb  Sb24  1  0.00002200  0.83855200  0.33681400  1
  Sb  Sb25  1  0.50101500  0.80491900  0.46037400  1
  Sb  Sb26  1  0.00000000  0.33232000  0.00000000  1
  Sb  Sb27  1  0.50000000  0.33232000  0.11379000  1
  Sb  Sb28  1  0.00000000  0.33232000  0.22759000  1
  Sb  Sb29  1  0.49932100  0.32951900  0.34095200  1
  Cl  Cl30  1  0.50154000  0.50481700  0.54102400  1
  O  O31  1  0.00000000  0.82836000  0.04494000  1
  O  O32  1  0.50000000  0.82836000  0.15874000  1
  O  O33  1  0.99980400  0.84474300  0.27065200  1
  O  O34  1  0.50096200  0.82286900  0.38803100  1
  O  O35  1  0.50000000  0.82836000  0.06885000  1
  O  O36  1  0.00000000  0.82836000  0.18264000  1
  O  O37  1  0.49993400  0.83027600  0.29910200  1
  O  O38  1  0.00026500  0.81164300  0.40587300  1
  O  O39  1  0.30253000  0.32836000  0.00000000  1
  O  O40  1  0.80253000  0.32836000  0.11379000  1
  O  O41  1  0.30253000  0.32836000  0.22759000  1
  O  O42  1  0.80577300  0.32752700  0.33449700  1
  O  O43  1  0.26463200  0.33225000  0.46284700  1
  O  O44  1  0.69747000  0.32836000  0.00000000  1
  O  O45  1  0.19747000  0.32836000  0.11379000  1
  O  O46  1  0.69747000  0.32836000  0.22759000  1
  O  O47  1  0.19336400  0.32719100  0.33404000  1
  O  O48  1  0.72746500  0.33343600  0.46109600  1
  O  O49  1  0.30253000  0.67164000  0.00000000  1
  O  O50  1  0.80253000  0.67164000  0.11379000  1
  O  O51  1  0.30253000  0.67164000  0.22759000  1
  O  O52  1  0.80829200  0.66191100  0.33872100  1
  O  O53  1  0.28426900  0.65793600  0.45549800  1
  O  O54  1  0.69747000  0.67164000  0.00000000  1
  O  O55  1  0.19747000  0.67164000  0.11379000  1
  O  O56  1  0.69747000  0.67164000  0.22759000  1
  O  O57  1  0.19178700  0.66219200  0.33854000  1
  O  O58  1  0.71608600  0.65700800  0.45502600  1
  O  O59  1  0.00000000  0.17164000  0.04494000  1
  O  O60  1  0.50000000  0.17164000  0.15874000  1
  O  O61  1  0.99978400  0.15531300  0.27066400  1
  O  O62  1  0.49724900  0.17939100  0.38938000  1
  O  O63  1  0.50000000  0.17164000  0.06885000  1
  O  O64  1  0.00000000  0.17164000  0.18264000  1
  O  O65  1  0.50033000  0.16502200  0.29836200  1
  O  O66  1  0.00018100  0.20517800  0.40115200  1
  O  O67  1  0.00000000  0.50000000  0.04332000  1
  O  O68  1  0.50000000  0.50000000  0.15711000  1
  O  O69  1  0.99950800  0.50002000  0.27169600  1
  O  O70  1  0.49735500  0.49166300  0.38533100  1
  O  O71  1  0.50000000  0.50000000  0.07048000  1
  O  O72  1  0.00000000  0.50000000  0.18427000  1
  O  O73  1  0.50026500  0.49943400  0.29679100  1
  O  O74  1  0.00163700  0.49631100  0.41018600  1
  O  O75  1  0.30966000  0.00000000  0.00000000  1
  O  O76  1  0.80966000  0.00000000  0.11379000  1
  O  O77  1  0.30966000  0.00000000  0.22759000  1
  O  O78  1  0.81471200  0.00787800  0.35080600  1
  O  O79  1  0.24766500  0.01114600  0.45574300  1
  O  O80  1  0.69034000  0.00000000  0.00000000  1
  O  O81  1  0.19034000  0.00000000  0.11379000  1
  O  O82  1  0.69034000  0.00000000  0.22759000  1
  O  O83  1  0.18510500  0.00783300  0.35095000  1
  O  O84  1  0.75485800  0.01350100  0.45602800  1
