# generated using pymatgen
data_MgTiMnVZnCrFeCoCuNiSb20ClO54
_symmetry_space_group_name_H-M   'P 1'
_cell_length_a   6.61618700
_cell_length_b   9.72284900
_cell_length_c   28.95958700
_cell_angle_alpha   90.26009300
_cell_angle_beta   89.94571800
_cell_angle_gamma   89.99114300
_symmetry_Int_Tables_number   1
_chemical_formula_structural   MgTiMnVZnCrFeCoCuNiSb20ClO54
_chemical_formula_sum
'Mg1 Ti1 Mn1 V1 Zn1 Cr1 Fe1 Co1 Cu1 Ni1 Sb20 Cl1 O54'
_cell_volume   1862.89767855
_cell_formula_units_Z   1
loop_
 _symmetry_equiv_pos_site_id
 _symmetry_equiv_pos_as_xyz
  1  'x, y, z'
loop_
 _atom_site_type_symbol
 _atom_site_label
 _atom_site_symmetry_multiplicity
 _atom_site_fract_x
 _atom_site_fract_y
 _atom_site_fract_z
 _atom_site_occupancy
  Mg  Mg0  1  0.49796300  0.49396100  0.54314200  1
  Ti  Ti1  1  0.00242200  0.83607900  0.65765700  1
  Mn  Mn2  1  0.50000000  0.83232000  0.00000000  1
  V  V3  1  0.00000000  0.00000000  0.77241000  1
  Zn  Zn4  1  0.99949700  0.32065700  0.55291800  1
  Cr  Cr5  1  0.00000000  0.33232000  0.77241000  1
  Fe  Fe6  1  0.50000900  0.99050400  0.65909400  1
  Co  Co7  1  0.00000000  0.33232000  0.00000000  1
  Cu  Cu8  1  0.00000000  0.66768000  0.00000000  1
  Ni  Ni9  1  0.00000000  0.00000000  0.00000000  1
  Sb  Sb10  1  0.50000000  1.00000000  0.88621000  1
  Sb  Sb11  1  0.00034400  0.99478800  0.54177400  1
  Sb  Sb12  1  0.50000000  0.50000000  0.00000000  1
  Sb  Sb13  1  1.00000000  0.50000000  0.88621000  1
  Sb  Sb14  1  0.50000000  0.50000000  0.77241000  1
  Sb  Sb15  1  0.00379200  0.50444600  0.65446300  1
  Sb  Sb16  1  0.50000000  0.33232000  0.88621000  1
  Sb  Sb17  1  0.50030600  0.32442500  0.65869700  1
  Sb  Sb18  1  0.00000000  0.83232000  0.88621000  1
  Sb  Sb19  1  0.50000000  0.83232000  0.77241000  1
  Sb  Sb20  1  0.50071800  0.80312900  0.53722200  1
  Sb  Sb21  1  0.50000000  0.16768000  0.00000000  1
  Sb  Sb22  1  0.00000000  0.16768000  0.88621000  1
  Sb  Sb23  1  0.50000000  0.16768000  0.77241000  1
  Sb  Sb24  1  0.99905500  0.14844500  0.66016200  1
  Sb  Sb25  1  0.50041400  0.18610700  0.54625400  1
  Sb  Sb26  1  0.50000000  0.66768000  0.88621000  1
  Sb  Sb27  1  0.00000000  0.66768000  0.77241000  1
  Sb  Sb28  1  0.50416700  0.67177800  0.64719400  1
  Sb  Sb29  1  0.99230200  0.66554400  0.54168200  1
  Cl  Cl30  1  0.52939300  0.60737700  0.46791600  1
  O  O31  1  0.00000000  0.17164000  0.95506000  1
  O  O32  1  0.50000000  0.17164000  0.84126000  1
  O  O33  1  0.99980400  0.15525700  0.72934800  1
  O  O34  1  0.50009400  0.16637700  0.61461800  1
  O  O35  1  0.50000000  0.17164000  0.93115000  1
  O  O36  1  0.00000000  0.17164000  0.81736000  1
  O  O37  1  0.50129300  0.16450100  0.70337300  1
  O  O38  1  0.00017400  0.14756400  0.59033100  1
  O  O39  1  0.30253000  0.67164000  0.00000000  1
  O  O40  1  0.80253000  0.67164000  0.88621000  1
  O  O41  1  0.30253000  0.67164000  0.77241000  1
  O  O42  1  0.80795700  0.68448400  0.65991600  1
  O  O43  1  0.29924400  0.65979000  0.55808400  1
  O  O44  1  0.69747000  0.67164000  0.00000000  1
  O  O45  1  0.19747000  0.67164000  0.88621000  1
  O  O46  1  0.69747000  0.67164000  0.77241000  1
  O  O47  1  0.19718600  0.68581100  0.65921700  1
  O  O48  1  0.68938600  0.65945200  0.56448200  1
  O  O49  1  0.30253000  0.32836000  0.00000000  1
  O  O50  1  0.80253000  0.32836000  0.88621000  1
  O  O51  1  0.30253000  0.32836000  0.77241000  1
  O  O52  1  0.80633600  0.31434500  0.65873200  1
  O  O53  1  0.29556500  0.33043000  0.53684600  1
  O  O54  1  0.69747000  0.32836000  0.00000000  1
  O  O55  1  0.19747000  0.32836000  0.88621000  1
  O  O56  1  0.69747000  0.32836000  0.77241000  1
  O  O57  1  0.19403900  0.31255600  0.65912700  1
  O  O58  1  0.70283600  0.33219800  0.53808900  1
  O  O59  1  0.00000000  0.82836000  0.95506000  1
  O  O60  1  0.50000000  0.82836000  0.84126000  1
  O  O61  1  0.99978400  0.84468700  0.72933600  1
  O  O62  1  0.49533100  0.84858300  0.61141300  1
  O  O63  1  0.50000000  0.82836000  0.93115000  1
  O  O64  1  0.00000000  0.82836000  0.81736000  1
  O  O65  1  0.50120400  0.82712600  0.70249300  1
  O  O66  1  0.99858500  0.83506700  0.59023700  1
  O  O67  1  0.00000000  0.50000000  0.95668000  1
  O  O68  1  0.50000000  0.50000000  0.84289000  1
  O  O69  1  0.99950800  0.49998000  0.72830400  1
  O  O70  1  0.49330000  0.48024600  0.61480900  1
  O  O71  1  0.50000000  0.50000000  0.92952000  1
  O  O72  1  0.00000000  0.50000000  0.81573000  1
  O  O73  1  0.50124000  0.49953800  0.69990200  1
  O  O74  1  0.99995100  0.50105300  0.58274900  1
  O  O75  1  0.30966000  1.00000000  1.00000000  1
  O  O76  1  0.80966000  1.00000000  0.88621000  1
  O  O77  1  0.30966000  1.00000000  0.77241000  1
  O  O78  1  0.80581800  0.99163100  0.66007500  1
  O  O79  1  0.30340200  0.03929500  0.53320900  1
  O  O80  1  0.69034000  1.00000000  0.00000000  1
  O  O81  1  0.19034000  1.00000000  0.88621000  1
  O  O82  1  0.69034000  0.00000000  0.77241000  1
  O  O83  1  0.19423800  0.99244200  0.66033500  1
  O  O84  1  0.69969100  0.04284500  0.53169400  1
