# generated using pymatgen
data_MgTiMnVZnCrFeCoCuNiSb20ClO54
_symmetry_space_group_name_H-M   'P 1'
_cell_length_a   6.63462900
_cell_length_b   9.61356100
_cell_length_c   29.22028900
_cell_angle_alpha   90.14388000
_cell_angle_beta   89.99890400
_cell_angle_gamma   89.99906000
_symmetry_Int_Tables_number   1
_chemical_formula_structural   MgTiMnVZnCrFeCoCuNiSb20ClO54
_chemical_formula_sum
'Mg1 Ti1 Mn1 V1 Zn1 Cr1 Fe1 Co1 Cu1 Ni1 Sb20 Cl1 O54'
_cell_volume   1863.73459398
_cell_formula_units_Z   1
loop_
 _symmetry_equiv_pos_site_id
 _symmetry_equiv_pos_as_xyz
  1  'x, y, z'
loop_
 _atom_site_type_symbol
 _atom_site_label
 _atom_site_symmetry_multiplicity
 _atom_site_fract_x
 _atom_site_fract_y
 _atom_site_fract_z
 _atom_site_occupancy
  Mg  Mg0  1  0.49910600  0.47591000  0.54288300  1
  Ti  Ti1  1  0.99983300  0.16928700  0.66797500  1
  Mn  Mn2  1  0.50000000  0.50000000  1.00000000  1
  V  V3  1  0.50000000  0.16768000  0.77241000  1
  Zn  Zn4  1  0.00000000  1.00000000  0.77241000  1
  Cr  Cr5  1  1.00000000  0.33232000  0.77241000  1
  Fe  Fe6  1  1.00000000  0.16768000  0.88621000  1
  Co  Co7  1  0.00021800  0.02536000  0.55836800  1
  Cu  Cu8  1  0.99953900  0.30775900  0.55488200  1
  Ni  Ni9  1  0.00000000  0.66768000  1.00000000  1
  Sb  Sb10  1  0.00000000  0.00000000  0.00000000  1
  Sb  Sb11  1  0.50000000  1.00000000  0.88621000  1
  Sb  Sb12  1  0.50008200  0.99540100  0.66383900  1
  Sb  Sb13  1  1.00000000  0.50000000  0.88621000  1
  Sb  Sb14  1  0.50000000  0.50000000  0.77241000  1
  Sb  Sb15  1  0.99855700  0.49904900  0.65420100  1
  Sb  Sb16  1  0.50000000  0.66768000  0.88621000  1
  Sb  Sb17  1  0.00000000  0.66768000  0.77241000  1
  Sb  Sb18  1  0.49965700  0.66773800  0.62983800  1
  Sb  Sb19  1  0.00000700  0.67984700  0.54731900  1
  Sb  Sb20  1  0.50000000  0.16768000  1.00000000  1
  Sb  Sb21  1  0.50017300  0.16316400  0.54902700  1
  Sb  Sb22  1  0.50000000  0.83232000  1.00000000  1
  Sb  Sb23  1  0.00000000  0.83232000  0.88621000  1
  Sb  Sb24  1  0.50000000  0.83232000  0.77241000  1
  Sb  Sb25  1  0.00007900  0.83924500  0.66058700  1
  Sb  Sb26  1  0.49981800  0.82083700  0.53166800  1
  Sb  Sb27  1  0.00000000  0.33232000  1.00000000  1
  Sb  Sb28  1  0.50000000  0.33232000  0.88621000  1
  Sb  Sb29  1  0.49953300  0.32989500  0.66365500  1
  Cl  Cl30  1  0.48820400  0.58407700  0.47066600  1
  O  O31  1  0.00000000  0.82836000  0.95506000  1
  O  O32  1  0.50000000  0.82836000  0.84126000  1
  O  O33  1  0.00019600  0.84474300  0.72934800  1
  O  O34  1  0.50014000  0.87010900  0.61068300  1
  O  O35  1  0.50000000  0.82836000  0.93115000  1
  O  O36  1  0.00000000  0.82836000  0.81736000  1
  O  O37  1  0.49917300  0.82875400  0.70282800  1
  O  O38  1  0.99896100  0.84404500  0.59233500  1
  O  O39  1  0.69747000  0.32836000  1.00000000  1
  O  O40  1  0.19747000  0.32836000  0.88621000  1
  O  O41  1  0.69747000  0.32836000  0.77241000  1
  O  O42  1  0.20265000  0.31149800  0.66335500  1
  O  O43  1  0.70406700  0.31045600  0.54135200  1
  O  O44  1  0.30253000  0.32836000  1.00000000  1
  O  O45  1  0.80253000  0.32836000  0.88621000  1
  O  O46  1  0.30253000  0.32836000  0.77241000  1
  O  O47  1  0.79614100  0.31047100  0.66368100  1
  O  O48  1  0.29502800  0.30982300  0.54168500  1
  O  O49  1  0.69747000  0.67164000  1.00000000  1
  O  O50  1  0.19747000  0.67164000  0.88621000  1
  O  O51  1  0.69747000  0.67164000  0.77241000  1
  O  O52  1  0.20318400  0.68153600  0.65855100  1
  O  O53  1  0.68188100  0.67068500  0.56593600  1
  O  O54  1  0.30253000  0.67164000  1.00000000  1
  O  O55  1  0.80253000  0.67164000  0.88621000  1
  O  O56  1  0.30253000  0.67164000  0.77241000  1
  O  O57  1  0.79557900  0.68240700  0.65853500  1
  O  O58  1  0.31767100  0.67210500  0.56641600  1
  O  O59  1  1.00000000  0.17164000  0.95506000  1
  O  O60  1  0.50000000  0.17164000  0.84126000  1
  O  O61  1  0.00021600  0.15531300  0.72933600  1
  O  O62  1  0.49993000  0.16026900  0.61926900  1
  O  O63  1  0.50000000  0.17164000  0.93115000  1
  O  O64  1  1.00000000  0.17164000  0.81736000  1
  O  O65  1  0.49965500  0.16235100  0.70647200  1
  O  O66  1  0.99929700  0.16123800  0.59934500  1
  O  O67  1  0.00000000  0.50000000  0.95668000  1
  O  O68  1  0.50000000  0.50000000  0.84289000  1
  O  O69  1  0.00049200  0.50002000  0.72830400  1
  O  O70  1  0.50090000  0.46168500  0.61263900  1
  O  O71  1  0.50000000  0.50000000  0.92952000  1
  O  O72  1  0.00000000  0.50000000  0.81573000  1
  O  O73  1  0.50019200  0.50078500  0.70201100  1
  O  O74  1  0.00056300  0.50200100  0.58038100  1
  O  O75  1  0.69034000  0.00000000  0.00000000  1
  O  O76  1  0.19034000  1.00000000  0.88621000  1
  O  O77  1  0.69034000  1.00000000  0.77241000  1
  O  O78  1  0.19612300  0.99996700  0.66261600  1
  O  O79  1  0.70980000  0.01031800  0.54121500  1
  O  O80  1  0.30966000  0.00000000  0.00000000  1
  O  O81  1  0.80966000  1.00000000  0.88621000  1
  O  O82  1  0.30966000  1.00000000  0.77241000  1
  O  O83  1  0.80393900  0.00000300  0.66267600  1
  O  O84  1  0.29043000  0.00986100  0.54120300  1
