# generated using pymatgen
data_MgTiMnVZnCrFeCoCuNiSb20ClO54
_symmetry_space_group_name_H-M   'P 1'
_cell_length_a   6.70113700
_cell_length_b   9.73354800
_cell_length_c   29.94761500
_cell_angle_alpha   89.92469100
_cell_angle_beta   89.79721900
_cell_angle_gamma   89.98420400
_symmetry_Int_Tables_number   1
_chemical_formula_structural   MgTiMnVZnCrFeCoCuNiSb20ClO54
_chemical_formula_sum
'Mg1 Ti1 Mn1 V1 Zn1 Cr1 Fe1 Co1 Cu1 Ni1 Sb20 Cl1 O54'
_cell_volume   1953.34431091
_cell_formula_units_Z   1
loop_
 _symmetry_equiv_pos_site_id
 _symmetry_equiv_pos_as_xyz
  1  'x, y, z'
loop_
 _atom_site_type_symbol
 _atom_site_label
 _atom_site_symmetry_multiplicity
 _atom_site_fract_x
 _atom_site_fract_y
 _atom_site_fract_z
 _atom_site_occupancy
  Mg  Mg0  1  0.50021600  0.50456800  0.55470700  1
  Ti  Ti1  1  0.50315700  0.17611900  0.56616400  1
  Mn  Mn2  1  0.50110700  0.34271200  0.66314700  1
  V  V3  1  0.00000000  0.66768000  0.00000000  1
  Zn  Zn4  1  0.99962600  0.67720100  0.55875000  1
  Cr  Cr5  1  0.00000000  0.33232000  0.00000000  1
  Fe  Fe6  1  0.50000000  0.16768000  1.00000000  1
  Co  Co7  1  0.00348900  0.99837700  0.56169500  1
  Cu  Cu8  1  0.50090500  0.00132100  0.66575800  1
  Ni  Ni9  1  0.50002900  0.66065400  0.66408300  1
  Sb  Sb10  1  0.00000000  0.00000000  0.00000000  1
  Sb  Sb11  1  0.50000000  1.00000000  0.88621000  1
  Sb  Sb12  1  0.00000000  0.00000000  0.77241000  1
  Sb  Sb13  1  0.50000000  0.50000000  1.00000000  1
  Sb  Sb14  1  0.00000000  0.50000000  0.88621000  1
  Sb  Sb15  1  0.50000000  0.50000000  0.77241000  1
  Sb  Sb16  1  0.00018900  0.50227900  0.65793200  1
  Sb  Sb17  1  0.50000000  0.66768000  0.88621000  1
  Sb  Sb18  1  0.00000000  0.66768000  0.77241000  1
  Sb  Sb19  1  0.00000000  0.16768000  0.88621000  1
  Sb  Sb20  1  0.50000000  0.16768000  0.77241000  1
  Sb  Sb21  1  0.00030000  0.16562600  0.65880200  1
  Sb  Sb22  1  0.50000000  0.83232000  1.00000000  1
  Sb  Sb23  1  0.00000000  0.83232000  0.88621000  1
  Sb  Sb24  1  0.50000000  0.83232000  0.77241000  1
  Sb  Sb25  1  0.99986600  0.83573200  0.66006500  1
  Sb  Sb26  1  0.50123800  0.83403100  0.56200600  1
  Sb  Sb27  1  0.50000000  0.33232000  0.88621000  1
  Sb  Sb28  1  0.00000000  0.33232000  0.77241000  1
  Sb  Sb29  1  0.00208000  0.33184900  0.54632500  1
  Cl  Cl30  1  0.45884200  0.47223700  0.47748700  1
  O  O31  1  0.00000000  0.82836000  0.95506000  1
  O  O32  1  0.50000000  0.82836000  0.84126000  1
  O  O33  1  0.00019600  0.84474300  0.72934800  1
  O  O34  1  0.50227400  0.83111500  0.62723500  1
  O  O35  1  0.50000000  0.82836000  0.93115000  1
  O  O36  1  0.00000000  0.82836000  0.81736000  1
  O  O37  1  0.50058300  0.82956900  0.70779300  1
  O  O38  1  0.99292700  0.84014400  0.59591600  1
  O  O39  1  0.69747000  0.32836000  1.00000000  1
  O  O40  1  0.19747000  0.32836000  0.88621000  1
  O  O41  1  0.69747000  0.32836000  0.77241000  1
  O  O42  1  0.19377700  0.33555300  0.66432200  1
  O  O43  1  0.69061900  0.30872100  0.55503200  1
  O  O44  1  0.30253000  0.32836000  1.00000000  1
  O  O45  1  0.80253000  0.32836000  0.88621000  1
  O  O46  1  0.30253000  0.32836000  0.77241000  1
  O  O47  1  0.80748600  0.33546200  0.66485500  1
  O  O48  1  0.30526700  0.30220800  0.55748700  1
  O  O49  1  0.69747000  0.67164000  1.00000000  1
  O  O50  1  0.19747000  0.67164000  0.88621000  1
  O  O51  1  0.69747000  0.67164000  0.77241000  1
  O  O52  1  0.19023500  0.66624700  0.66388200  1
  O  O53  1  0.70042000  0.68489200  0.54949500  1
  O  O54  1  0.30253000  0.67164000  1.00000000  1
  O  O55  1  0.80253000  0.67164000  0.88621000  1
  O  O56  1  0.30253000  0.67164000  0.77241000  1
  O  O57  1  0.81005800  0.66582000  0.66405200  1
  O  O58  1  0.29909600  0.68688100  0.55166900  1
  O  O59  1  0.00000000  0.17164000  0.95506000  1
  O  O60  1  0.50000000  0.17164000  0.84126000  1
  O  O61  1  0.00021600  0.15531300  0.72933600  1
  O  O62  1  0.50540500  0.18448000  0.62714800  1
  O  O63  1  0.50000000  0.17164000  0.93115000  1
  O  O64  1  0.00000000  0.17164000  0.81736000  1
  O  O65  1  0.49957100  0.17406100  0.70747700  1
  O  O66  1  0.99336600  0.17270400  0.59284300  1
  O  O67  1  0.00000000  0.50000000  0.95668000  1
  O  O68  1  0.50000000  0.50000000  0.84289000  1
  O  O69  1  0.00049200  0.50002000  0.72830400  1
  O  O70  1  0.50285600  0.48939900  0.62522500  1
  O  O71  1  0.50000000  0.50000000  0.92952000  1
  O  O72  1  0.00000000  0.50000000  0.81573000  1
  O  O73  1  0.49954500  0.49579200  0.70550600  1
  O  O74  1  0.00003700  0.49223300  0.59119700  1
  O  O75  1  0.69034000  0.00000000  1.00000000  1
  O  O76  1  0.19034000  1.00000000  0.88621000  1
  O  O77  1  0.69034000  0.00000000  0.77241000  1
  O  O78  1  0.19174700  0.00321100  0.66336200  1
  O  O79  1  0.69466100  0.00087800  0.55308600  1
  O  O80  1  0.30966000  1.00000000  1.00000000  1
  O  O81  1  0.80966000  0.00000000  0.88621000  1
  O  O82  1  0.30966000  1.00000000  0.77241000  1
  O  O83  1  0.80900200  0.00365500  0.66393900  1
  O  O84  1  0.30125900  0.99991800  0.55331000  1
