# generated using pymatgen
data_MgTiMnVZnCrFeCoCuNiSb20ClO54
_symmetry_space_group_name_H-M   'P 1'
_cell_length_a   6.74905200
_cell_length_b   9.46176400
_cell_length_c   29.95763300
_cell_angle_alpha   90.06072800
_cell_angle_beta   89.93140300
_cell_angle_gamma   89.97121600
_symmetry_Int_Tables_number   1
_chemical_formula_structural   MgTiMnVZnCrFeCoCuNiSb20ClO54
_chemical_formula_sum
'Mg1 Ti1 Mn1 V1 Zn1 Cr1 Fe1 Co1 Cu1 Ni1 Sb20 Cl1 O54'
_cell_volume   1913.02995997
_cell_formula_units_Z   1
loop_
 _symmetry_equiv_pos_site_id
 _symmetry_equiv_pos_as_xyz
  1  'x, y, z'
loop_
 _atom_site_type_symbol
 _atom_site_label
 _atom_site_symmetry_multiplicity
 _atom_site_fract_x
 _atom_site_fract_y
 _atom_site_fract_z
 _atom_site_occupancy
  Mg  Mg0  1  0.49949600  0.50275200  0.54943000  1
  Ti  Ti1  1  0.50000800  0.83140700  0.56125000  1
  Mn  Mn2  1  0.00504900  0.83291700  0.66718100  1
  V  V3  1  0.52405100  0.65576800  0.66449600  1
  Zn  Zn4  1  0.49815100  0.16986500  0.55956800  1
  Cr  Cr5  1  1.00000000  0.00000000  0.77241000  1
  Fe  Fe6  1  0.00000000  0.66768000  0.77241000  1
  Co  Co7  1  0.50516600  0.33129700  0.66204400  1
  Cu  Cu8  1  0.50000000  0.83232000  0.77241000  1
  Ni  Ni9  1  0.50000000  0.50000000  0.00000000  1
  Sb  Sb10  1  0.00000000  0.00000000  0.00000000  1
  Sb  Sb11  1  0.50000000  0.00000000  0.88621000  1
  Sb  Sb12  1  0.50287200  0.99594700  0.66582800  1
  Sb  Sb13  1  0.99963200  0.98766500  0.55215100  1
  Sb  Sb14  1  0.00000000  0.50000000  0.88621000  1
  Sb  Sb15  1  0.50000000  0.50000000  0.77241000  1
  Sb  Sb16  1  0.00772200  0.50389100  0.66163700  1
  Sb  Sb17  1  0.00000000  0.33232000  0.00000000  1
  Sb  Sb18  1  0.50000000  0.33232000  0.88621000  1
  Sb  Sb19  1  0.00000000  0.33232000  0.77241000  1
  Sb  Sb20  1  0.99789100  0.33177000  0.54915200  1
  Sb  Sb21  1  0.50000000  0.83232000  0.00000000  1
  Sb  Sb22  1  0.00000000  0.83232000  0.88621000  1
  Sb  Sb23  1  0.50000000  0.16768000  0.00000000  1
  Sb  Sb24  1  0.00000000  0.16768000  0.88621000  1
  Sb  Sb25  1  0.50000000  0.16768000  0.77241000  1
  Sb  Sb26  1  0.00252100  0.16446500  0.66201200  1
  Sb  Sb27  1  1.00000000  0.66768000  0.00000000  1
  Sb  Sb28  1  0.50000000  0.66768000  0.88621000  1
  Sb  Sb29  1  0.99938800  0.67257600  0.54813500  1
  Cl  Cl30  1  0.52790600  0.51081900  0.47123400  1
  O  O31  1  0.00000000  0.17164000  0.95506000  1
  O  O32  1  0.50000000  0.17164000  0.84126000  1
  O  O33  1  0.99980400  0.15525700  0.72934800  1
  O  O34  1  0.50728700  0.15898100  0.62562600  1
  O  O35  1  0.50000000  0.17164000  0.93115000  1
  O  O36  1  0.00000000  0.17164000  0.81736000  1
  O  O37  1  0.50426700  0.17044700  0.70691800  1
  O  O38  1  0.00157800  0.16008400  0.59455300  1
  O  O39  1  0.30253000  0.67164000  0.00000000  1
  O  O40  1  0.80253000  0.67164000  0.88621000  1
  O  O41  1  0.30253000  0.67164000  0.77241000  1
  O  O42  1  0.79699800  0.66188700  0.66592500  1
  O  O43  1  0.30756700  0.69161700  0.55201600  1
  O  O44  1  0.69747000  0.67164000  0.00000000  1
  O  O45  1  0.19747000  0.67164000  0.88621000  1
  O  O46  1  0.69747000  0.67164000  0.77241000  1
  O  O47  1  0.18346400  0.67343900  0.66464100  1
  O  O48  1  0.69290800  0.69135400  0.55437100  1
  O  O49  1  0.30253000  0.32836000  0.00000000  1
  O  O50  1  0.80253000  0.32836000  0.88621000  1
  O  O51  1  0.30253000  0.32836000  0.77241000  1
  O  O52  1  0.81173700  0.33422400  0.66220200  1
  O  O53  1  0.29555400  0.33158300  0.55483700  1
  O  O54  1  0.69747000  0.32836000  0.00000000  1
  O  O55  1  0.19747000  0.32836000  0.88621000  1
  O  O56  1  0.69747000  0.32836000  0.77241000  1
  O  O57  1  0.19700900  0.33333333  0.66166200  1
  O  O58  1  0.70142100  0.32984300  0.55664800  1
  O  O59  1  1.00000000  0.82836000  0.95506000  1
  O  O60  1  0.50000000  0.82836000  0.84126000  1
  O  O61  1  0.99978400  0.84468700  0.72933600  1
  O  O62  1  0.50356200  0.82578300  0.62435600  1
  O  O63  1  0.50000000  0.82836000  0.93115000  1
  O  O64  1  0.00000000  0.82836000  0.81736000  1
  O  O65  1  0.50104800  0.82470400  0.70411400  1
  O  O66  1  0.99914700  0.82868200  0.59851100  1
  O  O67  1  0.00000000  0.50000000  0.95668000  1
  O  O68  1  0.50000000  0.50000000  0.84289000  1
  O  O69  1  0.99950800  0.49998000  0.72830400  1
  O  O70  1  0.49384700  0.54373100  0.62145200  1
  O  O71  1  0.50000000  0.50000000  0.92952000  1
  O  O72  1  0.00000000  0.50000000  0.81573000  1
  O  O73  1  0.49244200  0.50284300  0.70506800  1
  O  O74  1  0.99679600  0.50582500  0.59392300  1
  O  O75  1  0.30966000  1.00000000  0.00000000  1
  O  O76  1  0.80966000  0.00000000  0.88621000  1
  O  O77  1  0.30966000  1.00000000  0.77241000  1
  O  O78  1  0.81518700  0.99504100  0.66317700  1
  O  O79  1  0.31221400  0.99147200  0.55346300  1
  O  O80  1  0.69034000  0.00000000  1.00000000  1
  O  O81  1  0.19034000  1.00000000  0.88621000  1
  O  O82  1  0.69034000  0.00000000  0.77241000  1
  O  O83  1  0.19353000  0.99836700  0.66284400  1
  O  O84  1  0.68681200  0.99070900  0.55262600  1
