# generated using pymatgen
data_MgTiMnVZnCrFeCoCuNiSb20ClO54
_symmetry_space_group_name_H-M   'P 1'
_cell_length_a   6.64800500
_cell_length_b   9.49866000
_cell_length_c   28.69378800
_cell_angle_alpha   90.09866800
_cell_angle_beta   89.99309400
_cell_angle_gamma   89.99356800
_symmetry_Int_Tables_number   1
_chemical_formula_structural   MgTiMnVZnCrFeCoCuNiSb20ClO54
_chemical_formula_sum
'Mg1 Ti1 Mn1 V1 Zn1 Cr1 Fe1 Co1 Cu1 Ni1 Sb20 Cl1 O54'
_cell_volume   1811.92791293
_cell_formula_units_Z   1
loop_
 _symmetry_equiv_pos_site_id
 _symmetry_equiv_pos_as_xyz
  1  'x, y, z'
loop_
 _atom_site_type_symbol
 _atom_site_label
 _atom_site_symmetry_multiplicity
 _atom_site_fract_x
 _atom_site_fract_y
 _atom_site_fract_z
 _atom_site_occupancy
  Mg  Mg0  1  0.50112000  0.48891100  0.46034800  1
  Ti  Ti1  1  0.00200400  0.33008600  0.43153200  1
  Mn  Mn2  1  0.00013200  0.15988400  0.33549300  1
  V  V3  1  0.50000000  0.50000000  0.00000000  1
  Zn  Zn4  1  0.50000000  0.16768000  0.22759000  1
  Cr  Cr5  1  0.50000000  0.33232000  0.11379000  1
  Fe  Fe6  1  1.00000000  0.50000000  0.11379000  1
  Co  Co7  1  0.50000000  1.00000000  0.11379000  1
  Cu  Cu8  1  1.00000000  0.33232000  0.22759000  1
  Ni  Ni9  1  0.00000000  0.00000000  0.00000000  1
  Sb  Sb10  1  1.00000000  1.00000000  0.22759000  1
  Sb  Sb11  1  0.49915200  0.00545800  0.34518400  1
  Sb  Sb12  1  0.00081200  0.03023800  0.46706100  1
  Sb  Sb13  1  0.50000000  0.50000000  0.22759000  1
  Sb  Sb14  1  0.99967900  0.50274100  0.33925200  1
  Sb  Sb15  1  1.00000000  0.66768000  0.00000000  1
  Sb  Sb16  1  0.50000000  0.66768000  0.11379000  1
  Sb  Sb17  1  1.00000000  0.66768000  0.22759000  1
  Sb  Sb18  1  0.49925300  0.66498100  0.35062200  1
  Sb  Sb19  1  0.99907200  0.65095100  0.46783600  1
  Sb  Sb20  1  0.50000000  0.16768000  0.00000000  1
  Sb  Sb21  1  1.00000000  0.16768000  0.11379000  1
  Sb  Sb22  1  0.50215300  0.16059100  0.46655600  1
  Sb  Sb23  1  0.50000000  0.83232000  0.00000000  1
  Sb  Sb24  1  1.00000000  0.83232000  0.11379000  1
  Sb  Sb25  1  0.50000000  0.83232000  0.22759000  1
  Sb  Sb26  1  0.99973300  0.84725900  0.35637100  1
  Sb  Sb27  1  0.50106400  0.80082600  0.47567000  1
  Sb  Sb28  1  1.00000000  0.33232000  0.00000000  1
  Sb  Sb29  1  0.49974600  0.33227500  0.34256900  1
  Cl  Cl30  1  0.51085400  0.56509400  0.53969400  1
  O  O31  1  0.00000000  0.82836000  0.04494000  1
  O  O32  1  0.50000000  0.82836000  0.15874000  1
  O  O33  1  0.99980400  0.84474300  0.27065200  1
  O  O34  1  0.49591800  0.83889000  0.38892900  1
  O  O35  1  0.50000000  0.82836000  0.06885000  1
  O  O36  1  1.00000000  0.82836000  0.18264000  1
  O  O37  1  0.50017100  0.82875200  0.29940800  1
  O  O38  1  0.00199500  0.84154200  0.43498200  1
  O  O39  1  0.30253000  0.32836000  0.00000000  1
  O  O40  1  0.80253000  0.32836000  0.11379000  1
  O  O41  1  0.30253000  0.32836000  0.22759000  1
  O  O42  1  0.80871800  0.33700400  0.34612400  1
  O  O43  1  0.23938600  0.34208100  0.46179900  1
  O  O44  1  0.69747000  0.32836000  0.00000000  1
  O  O45  1  0.19747000  0.32836000  0.11379000  1
  O  O46  1  0.69747000  0.32836000  0.22759000  1
  O  O47  1  0.19115300  0.33760800  0.34605200  1
  O  O48  1  0.76293800  0.34207000  0.46111000  1
  O  O49  1  0.30253000  0.67164000  0.00000000  1
  O  O50  1  0.80253000  0.67164000  0.11379000  1
  O  O51  1  0.30253000  0.67164000  0.22759000  1
  O  O52  1  0.79435800  0.66005900  0.33719700  1
  O  O53  1  0.30409400  0.66140200  0.44738100  1
  O  O54  1  0.69747000  0.67164000  0.00000000  1
  O  O55  1  0.19747000  0.67164000  0.11379000  1
  O  O56  1  0.69747000  0.67164000  0.22759000  1
  O  O57  1  0.20454500  0.66026200  0.33687700  1
  O  O58  1  0.69602600  0.66236400  0.44601900  1
  O  O59  1  1.00000000  0.17164000  0.04494000  1
  O  O60  1  0.50000000  0.17164000  0.15874000  1
  O  O61  1  0.99978400  0.15531300  0.27066400  1
  O  O62  1  0.49770300  0.17567700  0.39125800  1
  O  O63  1  0.50000000  0.17164000  0.06885000  1
  O  O64  1  1.00000000  0.17164000  0.18264000  1
  O  O65  1  0.50018000  0.16948900  0.30050500  1
  O  O66  1  0.00221000  0.14734800  0.40595700  1
  O  O67  1  1.00000000  0.50000000  0.04332000  1
  O  O68  1  0.50000000  0.50000000  0.15711000  1
  O  O69  1  0.99950800  0.50002000  0.27169600  1
  O  O70  1  0.49741800  0.48898000  0.38845200  1
  O  O71  1  0.50000000  0.50000000  0.07048000  1
  O  O72  1  0.00000000  0.50000000  0.18427000  1
  O  O73  1  0.49997800  0.50607800  0.29951300  1
  O  O74  1  0.00102600  0.52102000  0.40824900  1
  O  O75  1  0.30966000  0.00000000  1.00000000  1
  O  O76  1  0.80966000  1.00000000  0.11379000  1
  O  O77  1  0.30966000  0.00000000  0.22759000  1
  O  O78  1  0.79434900  0.00872900  0.33915500  1
  O  O79  1  0.30657700  0.00194000  0.45335600  1
  O  O80  1  0.69034000  1.00000000  0.00000000  1
  O  O81  1  0.19034000  0.00000000  0.11379000  1
  O  O82  1  0.69034000  1.00000000  0.22759000  1
  O  O83  1  0.20375600  0.00904100  0.33846000  1
  O  O84  1  0.69518000  0.00119100  0.45241200  1
