# generated using pymatgen
data_MgTiMnVZnCrFeCoCuNiSb20ClO54
_symmetry_space_group_name_H-M   'P 1'
_cell_length_a   6.77771900
_cell_length_b   9.51794000
_cell_length_c   29.91550000
_cell_angle_alpha   90.20785100
_cell_angle_beta   89.98582500
_cell_angle_gamma   89.98374500
_symmetry_Int_Tables_number   1
_chemical_formula_structural   MgTiMnVZnCrFeCoCuNiSb20ClO54
_chemical_formula_sum
'Mg1 Ti1 Mn1 V1 Zn1 Cr1 Fe1 Co1 Cu1 Ni1 Sb20 Cl1 O54'
_cell_volume   1929.83375921
_cell_formula_units_Z   1
loop_
 _symmetry_equiv_pos_site_id
 _symmetry_equiv_pos_as_xyz
  1  'x, y, z'
loop_
 _atom_site_type_symbol
 _atom_site_label
 _atom_site_symmetry_multiplicity
 _atom_site_fract_x
 _atom_site_fract_y
 _atom_site_fract_z
 _atom_site_occupancy
  Mg  Mg0  1  0.49992200  0.48788200  0.44393200  1
  Ti  Ti1  1  1.00000000  0.00000000  0.22759000  1
  Mn  Mn2  1  0.49995000  0.17025700  0.43190200  1
  V  V3  1  0.99976700  0.16577400  0.33705300  1
  Zn  Zn4  1  0.50000000  0.16768000  0.22759000  1
  Cr  Cr5  1  0.50000000  0.33232000  0.11379000  1
  Fe  Fe6  1  0.50113100  0.66120600  0.33566400  1
  Co  Co7  1  0.99950700  0.68425500  0.44028800  1
  Cu  Cu8  1  0.50059500  0.32865900  0.33395300  1
  Ni  Ni9  1  0.49994000  0.00308100  0.33261500  1
  Sb  Sb10  1  0.00000000  0.00000000  0.00000000  1
  Sb  Sb11  1  0.50000000  1.00000000  0.11379000  1
  Sb  Sb12  1  0.00008700  0.00783400  0.44905200  1
  Sb  Sb13  1  0.50000000  0.50000000  0.00000000  1
  Sb  Sb14  1  1.00000000  0.50000000  0.11379000  1
  Sb  Sb15  1  0.50000000  0.50000000  0.22759000  1
  Sb  Sb16  1  0.00128500  0.49522200  0.34156000  1
  Sb  Sb17  1  0.00000000  0.66768000  1.00000000  1
  Sb  Sb18  1  0.50000000  0.66768000  0.11379000  1
  Sb  Sb19  1  1.00000000  0.66768000  0.22759000  1
  Sb  Sb20  1  0.50000000  0.16768000  1.00000000  1
  Sb  Sb21  1  0.00000000  0.16768000  0.11379000  1
  Sb  Sb22  1  0.50000000  0.83232000  1.00000000  1
  Sb  Sb23  1  1.00000000  0.83232000  0.11379000  1
  Sb  Sb24  1  0.50000000  0.83232000  0.22759000  1
  Sb  Sb25  1  0.00132300  0.84219500  0.33802800  1
  Sb  Sb26  1  0.49962800  0.83127600  0.43718000  1
  Sb  Sb27  1  0.00000000  0.33232000  1.00000000  1
  Sb  Sb28  1  0.00000000  0.33232000  0.22759000  1
  Sb  Sb29  1  0.99960900  0.32986400  0.44987500  1
  Cl  Cl30  1  0.51549800  0.51516700  0.52096000  1
  O  O31  1  0.00000000  0.82836000  0.04494000  1
  O  O32  1  0.50000000  0.82836000  0.15874000  1
  O  O33  1  0.99980400  0.84474300  0.27065200  1
  O  O34  1  0.49933200  0.83092600  0.37196700  1
  O  O35  1  0.50000000  0.82836000  0.06885000  1
  O  O36  1  1.00000000  0.82836000  0.18264000  1
  O  O37  1  0.50327100  0.82353800  0.29369900  1
  O  O38  1  0.00252400  0.85140100  0.40469600  1
  O  O39  1  0.30253000  0.32836000  1.00000000  1
  O  O40  1  0.80253000  0.32836000  0.11379000  1
  O  O41  1  0.30253000  0.32836000  0.22759000  1
  O  O42  1  0.81778200  0.32368800  0.33697000  1
  O  O43  1  0.31348500  0.30584000  0.44206100  1
  O  O44  1  0.69747000  0.32836000  1.00000000  1
  O  O45  1  0.19747000  0.32836000  0.11379000  1
  O  O46  1  0.69747000  0.32836000  0.22759000  1
  O  O47  1  0.18383100  0.32392900  0.33686800  1
  O  O48  1  0.68646900  0.30596200  0.44052100  1
  O  O49  1  0.30253000  0.67164000  1.00000000  1
  O  O50  1  0.80253000  0.67164000  0.11379000  1
  O  O51  1  0.30253000  0.67164000  0.22759000  1
  O  O52  1  0.81579800  0.66824800  0.33727800  1
  O  O53  1  0.28225600  0.68736100  0.44672000  1
  O  O54  1  0.69747000  0.67164000  1.00000000  1
  O  O55  1  0.19747000  0.67164000  0.11379000  1
  O  O56  1  0.69747000  0.67164000  0.22759000  1
  O  O57  1  0.18673500  0.66826700  0.33647500  1
  O  O58  1  0.71772100  0.68772900  0.44606900  1
  O  O59  1  0.00000000  0.17164000  0.04494000  1
  O  O60  1  0.50000000  0.17164000  0.15874000  1
  O  O61  1  0.99978400  0.15531300  0.27066400  1
  O  O62  1  0.49582600  0.15808400  0.37509200  1
  O  O63  1  0.50000000  0.17164000  0.06885000  1
  O  O64  1  0.00000000  0.17164000  0.18264000  1
  O  O65  1  0.50233400  0.16198500  0.29588200  1
  O  O66  1  0.00136500  0.16571400  0.40322900  1
  O  O67  1  0.00000000  0.50000000  0.04332000  1
  O  O68  1  0.50000000  0.50000000  0.15711000  1
  O  O69  1  0.99950800  0.50002000  0.27169600  1
  O  O70  1  0.49983100  0.52239500  0.37418100  1
  O  O71  1  0.50000000  0.50000000  0.07048000  1
  O  O72  1  1.00000000  0.50000000  0.18427000  1
  O  O73  1  0.50233900  0.50854700  0.29301100  1
  O  O74  1  0.00097700  0.49922600  0.40912500  1
  O  O75  1  0.30966000  0.00000000  1.00000000  1
  O  O76  1  0.80966000  1.00000000  0.11379000  1
  O  O77  1  0.30966000  0.00000000  0.22759000  1
  O  O78  1  0.81535800  0.01127300  0.33708300  1
  O  O79  1  0.32019100  0.00829400  0.44391800  1
  O  O80  1  0.69034000  1.00000000  0.00000000  1
  O  O81  1  0.19034000  1.00000000  0.11379000  1
  O  O82  1  0.69034000  1.00000000  0.22759000  1
  O  O83  1  0.18663800  0.01087000  0.33670400  1
  O  O84  1  0.68069800  0.00829800  0.44333300  1
