# generated using pymatgen
data_MgTiMnVZnCrFeCoCuNiSb20ClO54
_symmetry_space_group_name_H-M   'P 1'
_cell_length_a   6.66149300
_cell_length_b   9.48297600
_cell_length_c   29.11440200
_cell_angle_alpha   90.39977600
_cell_angle_beta   89.96424900
_cell_angle_gamma   89.98261900
_symmetry_Int_Tables_number   1
_chemical_formula_structural   MgTiMnVZnCrFeCoCuNiSb20ClO54
_chemical_formula_sum
'Mg1 Ti1 Mn1 V1 Zn1 Cr1 Fe1 Co1 Cu1 Ni1 Sb20 Cl1 O54'
_cell_volume   1839.13421800
_cell_formula_units_Z   1
loop_
 _symmetry_equiv_pos_site_id
 _symmetry_equiv_pos_as_xyz
  1  'x, y, z'
loop_
 _atom_site_type_symbol
 _atom_site_label
 _atom_site_symmetry_multiplicity
 _atom_site_fract_x
 _atom_site_fract_y
 _atom_site_fract_z
 _atom_site_occupancy
  Mg  Mg0  1  0.49862700  0.51071100  0.54670400  1
  Ti  Ti1  1  0.49908200  0.82618700  0.55353500  1
  Mn  Mn2  1  0.50000000  0.16768000  0.00000000  1
  V  V3  1  0.00000000  0.33232000  0.77241000  1
  Zn  Zn4  1  0.50000000  0.50000000  0.77241000  1
  Cr  Cr5  1  0.99946200  0.49902700  0.66411600  1
  Fe  Fe6  1  0.00000000  0.66768000  0.77241000  1
  Co  Co7  1  1.00000000  0.33232000  0.00000000  1
  Cu  Cu8  1  0.50000000  0.83232000  0.77241000  1
  Ni  Ni9  1  0.50000000  0.33232000  0.88621000  1
  Sb  Sb10  1  0.00000000  0.00000000  0.00000000  1
  Sb  Sb11  1  0.50000000  1.00000000  0.88621000  1
  Sb  Sb12  1  0.00000000  1.00000000  0.77241000  1
  Sb  Sb13  1  0.50007500  0.99829200  0.65861400  1
  Sb  Sb14  1  0.99851700  0.99153400  0.53829600  1
  Sb  Sb15  1  0.50000000  0.50000000  0.00000000  1
  Sb  Sb16  1  0.00000000  0.50000000  0.88621000  1
  Sb  Sb17  1  1.00000000  0.66768000  0.00000000  1
  Sb  Sb18  1  0.50000000  0.66768000  0.88621000  1
  Sb  Sb19  1  0.50029400  0.66029800  0.66761800  1
  Sb  Sb20  1  0.99909000  0.65964800  0.54187200  1
  Sb  Sb21  1  0.00000000  0.16768000  0.88621000  1
  Sb  Sb22  1  0.50000000  0.16768000  0.77241000  1
  Sb  Sb23  1  0.99867000  0.17159600  0.65825800  1
  Sb  Sb24  1  0.49775900  0.19329300  0.53402500  1
  Sb  Sb25  1  0.50000000  0.83232000  0.00000000  1
  Sb  Sb26  1  0.00000000  0.83232000  0.88621000  1
  Sb  Sb27  1  0.00050100  0.82310000  0.66016100  1
  Sb  Sb28  1  0.49902700  0.33961600  0.65099100  1
  Sb  Sb29  1  0.00082500  0.33959000  0.54522600  1
  Cl  Cl30  1  0.48263200  0.40687300  0.46941700  1
  O  O31  1  0.00000000  0.82836000  0.95506000  1
  O  O32  1  0.50000000  0.82836000  0.84126000  1
  O  O33  1  0.00019600  0.84474300  0.72934800  1
  O  O34  1  0.50222100  0.82089000  0.61901100  1
  O  O35  1  0.50000000  0.82836000  0.93115000  1
  O  O36  1  0.00000000  0.82836000  0.81736000  1
  O  O37  1  0.49780400  0.83914800  0.70393900  1
  O  O38  1  0.99508900  0.82667600  0.58896700  1
  O  O39  1  0.69747000  0.32836000  0.00000000  1
  O  O40  1  0.19747000  0.32836000  0.88621000  1
  O  O41  1  0.69747000  0.32836000  0.77241000  1
  O  O42  1  0.19183800  0.33701800  0.65960600  1
  O  O43  1  0.69470900  0.33797700  0.56015500  1
  O  O44  1  0.30253000  0.32836000  0.00000000  1
  O  O45  1  0.80253000  0.32836000  0.88621000  1
  O  O46  1  0.30253000  0.32836000  0.77241000  1
  O  O47  1  0.80624900  0.33752700  0.65930300  1
  O  O48  1  0.30468600  0.33704700  0.56283600  1
  O  O49  1  0.69747000  0.67164000  0.00000000  1
  O  O50  1  0.19747000  0.67164000  0.88621000  1
  O  O51  1  0.69747000  0.67164000  0.77241000  1
  O  O52  1  0.19354000  0.65829100  0.66234600  1
  O  O53  1  0.68693500  0.67767800  0.54240500  1
  O  O54  1  0.30253000  0.67164000  0.00000000  1
  O  O55  1  0.80253000  0.67164000  0.88621000  1
  O  O56  1  0.30253000  0.67164000  0.77241000  1
  O  O57  1  0.80680600  0.65864100  0.66272600  1
  O  O58  1  0.30944200  0.67761300  0.54535600  1
  O  O59  1  0.00000000  0.17164000  0.95506000  1
  O  O60  1  0.50000000  0.17164000  0.84126000  1
  O  O61  1  0.00021600  0.15531300  0.72933600  1
  O  O62  1  0.50354100  0.15795300  0.61341300  1
  O  O63  1  0.50000000  0.17164000  0.93115000  1
  O  O64  1  0.00000000  0.17164000  0.81736000  1
  O  O65  1  0.49963500  0.17123000  0.70063300  1
  O  O66  1  0.99702900  0.15839600  0.58777600  1
  O  O67  1  0.00000000  0.50000000  0.95668000  1
  O  O68  1  0.50000000  0.50000000  0.84289000  1
  O  O69  1  0.00049200  0.50002000  0.72830400  1
  O  O70  1  0.50193700  0.51943400  0.61658600  1
  O  O71  1  0.50000000  0.50000000  0.92952000  1
  O  O72  1  0.00000000  0.50000000  0.81573000  1
  O  O73  1  0.49864600  0.48337200  0.70277600  1
  O  O74  1  0.99576800  0.50587300  0.59190000  1
  O  O75  1  0.69034000  1.00000000  0.00000000  1
  O  O76  1  0.19034000  1.00000000  0.88621000  1
  O  O77  1  0.69034000  1.00000000  0.77241000  1
  O  O78  1  0.19487100  0.99932300  0.65819500  1
  O  O79  1  0.69217400  0.97247300  0.54796400  1
  O  O80  1  0.30966000  1.00000000  0.00000000  1
  O  O81  1  0.80966000  1.00000000  0.88621000  1
  O  O82  1  0.30966000  1.00000000  0.77241000  1
  O  O83  1  0.80500200  0.99884200  0.65868700  1
  O  O84  1  0.30442300  0.97140100  0.54884300  1
