# generated using pymatgen
data_MgTiMnVZnCrFeCoCuNiSb20ClO54
_symmetry_space_group_name_H-M   'P 1'
_cell_length_a   6.61561400
_cell_length_b   9.62798500
_cell_length_c   28.72412200
_cell_angle_alpha   90.00811000
_cell_angle_beta   89.97423100
_cell_angle_gamma   89.97074800
_symmetry_Int_Tables_number   1
_chemical_formula_structural   MgTiMnVZnCrFeCoCuNiSb20ClO54
_chemical_formula_sum
'Mg1 Ti1 Mn1 V1 Zn1 Cr1 Fe1 Co1 Cu1 Ni1 Sb20 Cl1 O54'
_cell_volume   1829.58343836
_cell_formula_units_Z   1
loop_
 _symmetry_equiv_pos_site_id
 _symmetry_equiv_pos_as_xyz
  1  'x, y, z'
loop_
 _atom_site_type_symbol
 _atom_site_label
 _atom_site_symmetry_multiplicity
 _atom_site_fract_x
 _atom_site_fract_y
 _atom_site_fract_z
 _atom_site_occupancy
  Mg  Mg0  1  0.49888700  0.51713200  0.54475700  1
  Ti  Ti1  1  0.49967000  0.83378100  0.55156700  1
  Mn  Mn2  1  0.50000000  0.33232000  0.88621000  1
  V  V3  1  0.50000000  0.16768000  1.00000000  1
  Zn  Zn4  1  0.50000000  0.50000000  0.77241000  1
  Cr  Cr5  1  0.00000000  0.66768000  0.00000000  1
  Fe  Fe6  1  0.50000000  0.83232000  0.77241000  1
  Co  Co7  1  1.00000000  0.33232000  0.77241000  1
  Cu  Cu8  1  0.00000000  0.33232000  0.00000000  1
  Ni  Ni9  1  0.50000000  0.16768000  0.77241000  1
  Sb  Sb10  1  0.00000000  0.00000000  0.00000000  1
  Sb  Sb11  1  0.50000000  1.00000000  0.88621000  1
  Sb  Sb12  1  1.00000000  1.00000000  0.77241000  1
  Sb  Sb13  1  0.50072100  0.00494400  0.66138300  1
  Sb  Sb14  1  0.99874300  0.00887000  0.53747600  1
  Sb  Sb15  1  0.50000000  0.50000000  1.00000000  1
  Sb  Sb16  1  0.00000000  0.50000000  0.88621000  1
  Sb  Sb17  1  0.99705300  0.49891100  0.65724500  1
  Sb  Sb18  1  0.50000000  0.66768000  0.88621000  1
  Sb  Sb19  1  0.00000000  0.66768000  0.77241000  1
  Sb  Sb20  1  0.50060000  0.66546700  0.66363300  1
  Sb  Sb21  1  0.00035900  0.68964400  0.52743600  1
  Sb  Sb22  1  0.00000000  0.16768000  0.88621000  1
  Sb  Sb23  1  0.99935400  0.16443400  0.66002200  1
  Sb  Sb24  1  0.49743600  0.19696900  0.53482900  1
  Sb  Sb25  1  0.50000000  0.83232000  1.00000000  1
  Sb  Sb26  1  0.00000000  0.83232000  0.88621000  1
  Sb  Sb27  1  0.00173800  0.83410500  0.65465300  1
  Sb  Sb28  1  0.49833200  0.33342900  0.65595100  1
  Sb  Sb29  1  0.00541300  0.33646500  0.53543000  1
  Cl  Cl30  1  0.45400200  0.42226500  0.46703100  1
  O  O31  1  0.00000000  0.82836000  0.95506000  1
  O  O32  1  0.50000000  0.82836000  0.84126000  1
  O  O33  1  0.00019600  0.84474300  0.72934800  1
  O  O34  1  0.50158900  0.83073700  0.61811300  1
  O  O35  1  0.50000000  0.82836000  0.93115000  1
  O  O36  1  0.00000000  0.82836000  0.81736000  1
  O  O37  1  0.49715000  0.83713300  0.70395000  1
  O  O38  1  0.99678500  0.83496700  0.58462900  1
  O  O39  1  0.69747000  0.32836000  1.00000000  1
  O  O40  1  0.19747000  0.32836000  0.88621000  1
  O  O41  1  0.69747000  0.32836000  0.77241000  1
  O  O42  1  0.19731900  0.31851900  0.66203000  1
  O  O43  1  0.70322100  0.34230000  0.55592000  1
  O  O44  1  0.30253000  0.32836000  1.00000000  1
  O  O45  1  0.80253000  0.32836000  0.88621000  1
  O  O46  1  0.30253000  0.32836000  0.77241000  1
  O  O47  1  0.79997000  0.31729500  0.66168900  1
  O  O48  1  0.29727700  0.33901000  0.56163700  1
  O  O49  1  0.69747000  0.67164000  0.00000000  1
  O  O50  1  0.19747000  0.67164000  0.88621000  1
  O  O51  1  0.69747000  0.67164000  0.77241000  1
  O  O52  1  0.20122400  0.68166100  0.66301600  1
  O  O53  1  0.68865300  0.68889000  0.53946200  1
  O  O54  1  0.30253000  0.67164000  1.00000000  1
  O  O55  1  0.80253000  0.67164000  0.88621000  1
  O  O56  1  0.30253000  0.67164000  0.77241000  1
  O  O57  1  0.79965500  0.68448200  0.66467100  1
  O  O58  1  0.31011000  0.68926600  0.54084500  1
  O  O59  1  1.00000000  0.17164000  0.95506000  1
  O  O60  1  0.50000000  0.17164000  0.84126000  1
  O  O61  1  0.00021600  0.15531300  0.72933600  1
  O  O62  1  0.50280100  0.16276300  0.61305200  1
  O  O63  1  0.50000000  0.17164000  0.93115000  1
  O  O64  1  0.00000000  0.17164000  0.81736000  1
  O  O65  1  0.49925800  0.17114300  0.70301100  1
  O  O66  1  0.99574100  0.16164800  0.58937400  1
  O  O67  1  1.00000000  0.50000000  0.95668000  1
  O  O68  1  0.50000000  0.50000000  0.84289000  1
  O  O69  1  0.00049200  0.50002000  0.72830400  1
  O  O70  1  0.50709200  0.51120800  0.61636200  1
  O  O71  1  0.50000000  0.50000000  0.92952000  1
  O  O72  1  0.00000000  0.50000000  0.81573000  1
  O  O73  1  0.49925900  0.49350700  0.70243100  1
  O  O74  1  0.00006400  0.52136000  0.56699900  1
  O  O75  1  0.69034000  0.00000000  1.00000000  1
  O  O76  1  0.19034000  1.00000000  0.88621000  1
  O  O77  1  0.69034000  1.00000000  0.77241000  1
  O  O78  1  0.19450700  0.99995400  0.65738300  1
  O  O79  1  0.69233900  0.97955800  0.54555500  1
  O  O80  1  0.30966000  0.00000000  1.00000000  1
  O  O81  1  0.80966000  1.00000000  0.88621000  1
  O  O82  1  0.30966000  1.00000000  0.77241000  1
  O  O83  1  0.80697600  0.99883100  0.65814100  1
  O  O84  1  0.30436200  0.97770000  0.54624000  1
