# generated using pymatgen
data_MgTiMnVZnCrFeCoCuNiSb20ClO54
_symmetry_space_group_name_H-M   'P 1'
_cell_length_a   6.60741100
_cell_length_b   9.59902400
_cell_length_c   28.81391200
_cell_angle_alpha   89.89581400
_cell_angle_beta   89.98840600
_cell_angle_gamma   89.99601300
_symmetry_Int_Tables_number   1
_chemical_formula_structural   MgTiMnVZnCrFeCoCuNiSb20ClO54
_chemical_formula_sum
'Mg1 Ti1 Mn1 V1 Zn1 Cr1 Fe1 Co1 Cu1 Ni1 Sb20 Cl1 O54'
_cell_volume   1827.51056810
_cell_formula_units_Z   1
loop_
 _symmetry_equiv_pos_site_id
 _symmetry_equiv_pos_as_xyz
  1  'x, y, z'
loop_
 _atom_site_type_symbol
 _atom_site_label
 _atom_site_symmetry_multiplicity
 _atom_site_fract_x
 _atom_site_fract_y
 _atom_site_fract_z
 _atom_site_occupancy
  Mg  Mg0  1  0.49816500  0.47996800  0.53855900  1
  Ti  Ti1  1  0.99884800  0.82743600  0.65794100  1
  Mn  Mn2  1  0.99797400  0.31881000  0.54923400  1
  V  V3  1  0.50000000  0.00000000  0.88621000  1
  Zn  Zn4  1  1.00000000  0.33232000  0.77241000  1
  Cr  Cr5  1  0.00000000  1.00000000  0.77241000  1
  Fe  Fe6  1  1.00000000  0.33232000  1.00000000  1
  Co  Co7  1  0.00000000  0.66768000  1.00000000  1
  Cu  Cu8  1  0.50000000  0.83232000  1.00000000  1
  Ni  Ni9  1  0.50000000  0.50000000  1.00000000  1
  Sb  Sb10  1  0.00000000  0.00000000  0.00000000  1
  Sb  Sb11  1  0.49921400  0.99588800  0.65670700  1
  Sb  Sb12  1  0.99969800  0.01217900  0.54050500  1
  Sb  Sb13  1  0.00000000  0.50000000  0.88621000  1
  Sb  Sb14  1  0.50000000  0.50000000  0.77241000  1
  Sb  Sb15  1  0.99799000  0.50623400  0.65658600  1
  Sb  Sb16  1  0.50000000  0.66768000  0.88621000  1
  Sb  Sb17  1  0.00000000  0.66768000  0.77241000  1
  Sb  Sb18  1  0.49890800  0.66038600  0.62953600  1
  Sb  Sb19  1  0.00005200  0.67504200  0.54224600  1
  Sb  Sb20  1  0.50000000  0.16768000  1.00000000  1
  Sb  Sb21  1  1.00000000  0.16768000  0.88621000  1
  Sb  Sb22  1  0.50000000  0.16768000  0.77241000  1
  Sb  Sb23  1  0.99913100  0.15468600  0.66170200  1
  Sb  Sb24  1  0.49806100  0.17025500  0.51507400  1
  Sb  Sb25  1  0.00000000  0.83232000  0.88621000  1
  Sb  Sb26  1  0.50000000  0.83232000  0.77241000  1
  Sb  Sb27  1  0.49935300  0.82430500  0.52983900  1
  Sb  Sb28  1  0.50000000  0.33232000  0.88621000  1
  Sb  Sb29  1  0.49876600  0.32341100  0.65734900  1
  Cl  Cl30  1  0.48564700  0.56512500  0.46332100  1
  O  O31  1  0.00000000  0.82836000  0.95506000  1
  O  O32  1  0.50000000  0.82836000  0.84126000  1
  O  O33  1  0.00019600  0.84474300  0.72934800  1
  O  O34  1  0.50077000  0.86095100  0.60698700  1
  O  O35  1  0.50000000  0.82836000  0.93115000  1
  O  O36  1  0.00000000  0.82836000  0.81736000  1
  O  O37  1  0.49891500  0.83796400  0.70248300  1
  O  O38  1  0.99976200  0.84688100  0.58782300  1
  O  O39  1  0.69747000  0.32836000  1.00000000  1
  O  O40  1  0.19747000  0.32836000  0.88621000  1
  O  O41  1  0.69747000  0.32836000  0.77241000  1
  O  O42  1  0.19446700  0.31515300  0.66013300  1
  O  O43  1  0.71892800  0.31563900  0.53465900  1
  O  O44  1  0.30253000  0.32836000  1.00000000  1
  O  O45  1  0.80253000  0.32836000  0.88621000  1
  O  O46  1  0.30253000  0.32836000  0.77241000  1
  O  O47  1  0.80290700  0.31463800  0.66108500  1
  O  O48  1  0.27783300  0.31452300  0.53562300  1
  O  O49  1  0.69747000  0.67164000  1.00000000  1
  O  O50  1  0.19747000  0.67164000  0.88621000  1
  O  O51  1  0.69747000  0.67164000  0.77241000  1
  O  O52  1  0.19277200  0.68831800  0.65787700  1
  O  O53  1  0.68751800  0.66689100  0.56242000  1
  O  O54  1  0.30253000  0.67164000  1.00000000  1
  O  O55  1  0.80253000  0.67164000  0.88621000  1
  O  O56  1  0.30253000  0.67164000  0.77241000  1
  O  O57  1  0.80449600  0.68890200  0.65756900  1
  O  O58  1  0.31232700  0.66677400  0.56297600  1
  O  O59  1  1.00000000  0.17164000  0.95506000  1
  O  O60  1  0.50000000  0.17164000  0.84126000  1
  O  O61  1  0.00021600  0.15531300  0.72933600  1
  O  O62  1  0.50023300  0.16095800  0.61560900  1
  O  O63  1  0.50000000  0.17164000  0.93115000  1
  O  O64  1  1.00000000  0.17164000  0.81736000  1
  O  O65  1  0.49635200  0.15924100  0.70369100  1
  O  O66  1  0.99480000  0.15728800  0.59162300  1
  O  O67  1  0.00000000  0.50000000  0.95668000  1
  O  O68  1  0.50000000  0.50000000  0.84289000  1
  O  O69  1  0.00049200  0.50002000  0.72830400  1
  O  O70  1  0.50183800  0.45594500  0.60712100  1
  O  O71  1  0.50000000  0.50000000  0.92952000  1
  O  O72  1  0.00000000  0.50000000  0.81573000  1
  O  O73  1  0.49953400  0.49058500  0.69915000  1
  O  O74  1  0.99938700  0.49591400  0.57677600  1
  O  O75  1  0.69034000  1.00000000  0.00000000  1
  O  O76  1  0.19034000  0.00000000  0.88621000  1
  O  O77  1  0.69034000  1.00000000  0.77241000  1
  O  O78  1  0.19427200  0.99470900  0.65942700  1
  O  O79  1  0.68616600  0.00760200  0.54185800  1
  O  O80  1  0.30966000  0.00000000  1.00000000  1
  O  O81  1  0.80966000  1.00000000  0.88621000  1
  O  O82  1  0.30966000  0.00000000  0.77241000  1
  O  O83  1  0.80401200  0.99470800  0.66006200  1
  O  O84  1  0.31295000  0.00771800  0.54276300  1
