# generated using pymatgen
data_MgTiMnVZnCrFeCoCuNiSb20ClO54
_symmetry_space_group_name_H-M   'P 1'
_cell_length_a   6.65939000
_cell_length_b   9.56730000
_cell_length_c   28.99594300
_cell_angle_alpha   89.91992300
_cell_angle_beta   89.95394300
_cell_angle_gamma   89.98975500
_symmetry_Int_Tables_number   1
_chemical_formula_structural   MgTiMnVZnCrFeCoCuNiSb20ClO54
_chemical_formula_sum
'Mg1 Ti1 Mn1 V1 Zn1 Cr1 Fe1 Co1 Cu1 Ni1 Sb20 Cl1 O54'
_cell_volume   1847.39816503
_cell_formula_units_Z   1
loop_
 _symmetry_equiv_pos_site_id
 _symmetry_equiv_pos_as_xyz
  1  'x, y, z'
loop_
 _atom_site_type_symbol
 _atom_site_label
 _atom_site_symmetry_multiplicity
 _atom_site_fract_x
 _atom_site_fract_y
 _atom_site_fract_z
 _atom_site_occupancy
  Mg  Mg0  1  0.50236000  0.48163400  0.45678900  1
  Ti  Ti1  1  0.50000000  0.83232000  0.00000000  1
  Mn  Mn2  1  0.00242900  0.31063200  0.45171700  1
  V  V3  1  0.49989200  0.34403400  0.33929400  1
  Zn  Zn4  1  1.00000000  0.50000000  0.11379000  1
  Cr  Cr5  1  0.50000000  0.83232000  0.22759000  1
  Fe  Fe6  1  0.50000000  0.33232000  0.11379000  1
  Co  Co7  1  0.00124600  0.66600800  0.44759500  1
  Cu  Cu8  1  0.50000000  0.50000000  0.00000000  1
  Ni  Ni9  1  0.50000000  0.66768000  0.11379000  1
  Sb  Sb10  1  0.00000000  0.00000000  0.00000000  1
  Sb  Sb11  1  0.50000000  0.00000000  0.11379000  1
  Sb  Sb12  1  0.00000000  0.00000000  0.22759000  1
  Sb  Sb13  1  0.49903700  0.99947700  0.33929400  1
  Sb  Sb14  1  0.00216400  0.96615400  0.46934000  1
  Sb  Sb15  1  0.50000000  0.50000000  0.22759000  1
  Sb  Sb16  1  0.99879800  0.50204100  0.34833800  1
  Sb  Sb17  1  1.00000000  0.66768000  0.00000000  1
  Sb  Sb18  1  1.00000000  0.66768000  0.22759000  1
  Sb  Sb19  1  0.49904600  0.67787800  0.35442400  1
  Sb  Sb20  1  0.50000000  0.16768000  0.00000000  1
  Sb  Sb21  1  0.00000000  0.16768000  0.11379000  1
  Sb  Sb22  1  0.50000000  0.16768000  0.22759000  1
  Sb  Sb23  1  0.99944800  0.18056200  0.34892400  1
  Sb  Sb24  1  0.50155800  0.15938800  0.45279500  1
  Sb  Sb25  1  1.00000000  0.83232000  0.11379000  1
  Sb  Sb26  1  0.00004400  0.84254400  0.34362300  1
  Sb  Sb27  1  0.50176100  0.77695000  0.48539100  1
  Sb  Sb28  1  0.00000000  0.33232000  0.00000000  1
  Sb  Sb29  1  0.00000000  0.33232000  0.22759000  1
  Cl  Cl30  1  0.50185000  0.55511400  0.53919700  1
  O  O31  1  1.00000000  0.82836000  0.04494000  1
  O  O32  1  0.50000000  0.82836000  0.15874000  1
  O  O33  1  0.99980400  0.84474300  0.27065200  1
  O  O34  1  0.49570400  0.86462200  0.38940600  1
  O  O35  1  0.50000000  0.82836000  0.06885000  1
  O  O36  1  1.00000000  0.82836000  0.18264000  1
  O  O37  1  0.49877100  0.83466200  0.29737000  1
  O  O38  1  0.00339600  0.84369900  0.41126600  1
  O  O39  1  0.30253000  0.32836000  0.00000000  1
  O  O40  1  0.80253000  0.32836000  0.11379000  1
  O  O41  1  0.30253000  0.32836000  0.22759000  1
  O  O42  1  0.77043800  0.32700400  0.33015700  1
  O  O43  1  0.29666500  0.31171200  0.46142300  1
  O  O44  1  0.69747000  0.32836000  0.00000000  1
  O  O45  1  0.19747000  0.32836000  0.11379000  1
  O  O46  1  0.69747000  0.32836000  0.22759000  1
  O  O47  1  0.22694300  0.32855000  0.33090200  1
  O  O48  1  0.70734400  0.31111200  0.46114500  1
  O  O49  1  0.30253000  0.67164000  0.00000000  1
  O  O50  1  0.80253000  0.67164000  0.11379000  1
  O  O51  1  0.30253000  0.67164000  0.22759000  1
  O  O52  1  0.80993300  0.68715000  0.33821600  1
  O  O53  1  0.29275800  0.65888800  0.45283300  1
  O  O54  1  0.69747000  0.67164000  0.00000000  1
  O  O55  1  0.19747000  0.67164000  0.11379000  1
  O  O56  1  0.69747000  0.67164000  0.22759000  1
  O  O57  1  0.18819900  0.68551500  0.33757700  1
  O  O58  1  0.70890900  0.65873100  0.45208800  1
  O  O59  1  0.00000000  0.17164000  0.04494000  1
  O  O60  1  0.50000000  0.17164000  0.15874000  1
  O  O61  1  0.99978400  0.15531300  0.27066400  1
  O  O62  1  0.49843800  0.16394100  0.38298400  1
  O  O63  1  0.50000000  0.17164000  0.06885000  1
  O  O64  1  0.00000000  0.17164000  0.18264000  1
  O  O65  1  0.49835100  0.16250500  0.29627200  1
  O  O66  1  0.00414800  0.13065800  0.42846700  1
  O  O67  1  1.00000000  0.50000000  0.04332000  1
  O  O68  1  0.50000000  0.50000000  0.15711000  1
  O  O69  1  0.99950800  0.50002000  0.27169600  1
  O  O70  1  0.50181700  0.44783100  0.38660300  1
  O  O71  1  0.50000000  0.50000000  0.07048000  1
  O  O72  1  1.00000000  0.50000000  0.18427000  1
  O  O73  1  0.49896100  0.49617200  0.29784400  1
  O  O74  1  0.00164100  0.48076700  0.42306200  1
  O  O75  1  0.30966000  0.00000000  0.00000000  1
  O  O76  1  0.80966000  0.00000000  0.11379000  1
  O  O77  1  0.30966000  0.00000000  0.22759000  1
  O  O78  1  0.80332900  0.99994200  0.33733400  1
  O  O79  1  0.31098400  0.01123000  0.47213200  1
  O  O80  1  0.69034000  0.00000000  0.00000000  1
  O  O81  1  0.19034000  0.00000000  0.11379000  1
  O  O82  1  0.69034000  0.00000000  0.22759000  1
  O  O83  1  0.19467200  0.00072500  0.33659800  1
  O  O84  1  0.69316900  0.01001300  0.47024800  1
