# generated using pymatgen
data_MgTiMnVZnCrFeCoCuNiSb20ClO54
_symmetry_space_group_name_H-M   'P 1'
_cell_length_a   6.57389000
_cell_length_b   9.69943400
_cell_length_c   28.88854500
_cell_angle_alpha   90.00963000
_cell_angle_beta   89.93928400
_cell_angle_gamma   89.99286600
_symmetry_Int_Tables_number   1
_chemical_formula_structural   MgTiMnVZnCrFeCoCuNiSb20ClO54
_chemical_formula_sum
'Mg1 Ti1 Mn1 V1 Zn1 Cr1 Fe1 Co1 Cu1 Ni1 Sb20 Cl1 O54'
_cell_volume   1842.01957206
_cell_formula_units_Z   1
loop_
 _symmetry_equiv_pos_site_id
 _symmetry_equiv_pos_as_xyz
  1  'x, y, z'
loop_
 _atom_site_type_symbol
 _atom_site_label
 _atom_site_symmetry_multiplicity
 _atom_site_fract_x
 _atom_site_fract_y
 _atom_site_fract_z
 _atom_site_occupancy
  Mg  Mg0  1  0.50235700  0.52217000  0.54154800  1
  Ti  Ti1  1  0.99523200  0.18232000  0.65681400  1
  Mn  Mn2  1  1.00000000  0.66768000  0.00000000  1
  V  V3  1  0.50000000  0.00000000  0.88621000  1
  Zn  Zn4  1  0.99609100  0.49875300  0.65817700  1
  Cr  Cr5  1  0.50000000  0.50000000  0.77241000  1
  Fe  Fe6  1  0.00000000  0.33232000  1.00000000  1
  Co  Co7  1  0.50334700  0.82982800  0.54940000  1
  Cu  Cu8  1  1.00000000  0.50000000  0.88621000  1
  Ni  Ni9  1  0.00000000  0.00000000  0.00000000  1
  Sb  Sb10  1  1.00000000  0.00000000  0.77241000  1
  Sb  Sb11  1  0.50053400  0.99819900  0.65707600  1
  Sb  Sb12  1  0.00356000  0.99860900  0.53953800  1
  Sb  Sb13  1  0.50000000  0.50000000  1.00000000  1
  Sb  Sb14  1  0.50000000  0.66768000  0.88621000  1
  Sb  Sb15  1  1.00000000  0.66768000  0.77241000  1
  Sb  Sb16  1  0.50043700  0.66499400  0.66177200  1
  Sb  Sb17  1  0.00326000  0.66525100  0.53788000  1
  Sb  Sb18  1  0.50000000  0.16768000  1.00000000  1
  Sb  Sb19  1  1.00000000  0.16768000  0.88621000  1
  Sb  Sb20  1  0.50000000  0.16768000  0.77241000  1
  Sb  Sb21  1  0.50297100  0.16576400  0.53481300  1
  Sb  Sb22  1  0.50000000  0.83232000  0.00000000  1
  Sb  Sb23  1  1.00000000  0.83232000  0.88621000  1
  Sb  Sb24  1  0.50000000  0.83232000  0.77241000  1
  Sb  Sb25  1  0.00116800  0.83498400  0.65567800  1
  Sb  Sb26  1  0.50000000  0.33232000  0.88621000  1
  Sb  Sb27  1  1.00000000  0.33232000  0.77241000  1
  Sb  Sb28  1  0.49273100  0.33604600  0.63381200  1
  Sb  Sb29  1  0.00342100  0.33511500  0.54832400  1
  Cl  Cl30  1  0.45027900  0.42002600  0.46906100  1
  O  O31  1  1.00000000  0.82836000  0.95506000  1
  O  O32  1  0.50000000  0.82836000  0.84126000  1
  O  O33  1  0.00019600  0.84474300  0.72934800  1
  O  O34  1  0.50194000  0.82952500  0.61801300  1
  O  O35  1  0.50000000  0.82836000  0.93115000  1
  O  O36  1  1.00000000  0.82836000  0.81736000  1
  O  O37  1  0.49969800  0.83747300  0.70441900  1
  O  O38  1  0.00004500  0.83291700  0.58656400  1
  O  O39  1  0.69747000  0.32836000  1.00000000  1
  O  O40  1  0.19747000  0.32836000  0.88621000  1
  O  O41  1  0.69747000  0.32836000  0.77241000  1
  O  O42  1  0.18766600  0.31858700  0.65911700  1
  O  O43  1  0.69215500  0.33341500  0.56437200  1
  O  O44  1  0.30253000  0.32836000  1.00000000  1
  O  O45  1  0.80253000  0.32836000  0.88621000  1
  O  O46  1  0.30253000  0.32836000  0.77241000  1
  O  O47  1  0.80624600  0.31877200  0.65784800  1
  O  O48  1  0.31529100  0.32971400  0.56836200  1
  O  O49  1  0.69747000  0.67164000  1.00000000  1
  O  O50  1  0.19747000  0.67164000  0.88621000  1
  O  O51  1  0.69747000  0.67164000  0.77241000  1
  O  O52  1  0.19462900  0.67897800  0.66286100  1
  O  O53  1  0.69248200  0.69094300  0.54032100  1
  O  O54  1  0.30253000  0.67164000  1.00000000  1
  O  O55  1  0.80253000  0.67164000  0.88621000  1
  O  O56  1  0.30253000  0.67164000  0.77241000  1
  O  O57  1  0.80637300  0.67939900  0.66313700  1
  O  O58  1  0.31316900  0.69306700  0.54190200  1
  O  O59  1  1.00000000  0.17164000  0.95506000  1
  O  O60  1  0.50000000  0.17164000  0.84126000  1
  O  O61  1  0.00021600  0.15531300  0.72933600  1
  O  O62  1  0.51005600  0.13615000  0.60867900  1
  O  O63  1  0.50000000  0.17164000  0.93115000  1
  O  O64  1  1.00000000  0.17164000  0.81736000  1
  O  O65  1  0.49969900  0.15213300  0.70265800  1
  O  O66  1  0.00101800  0.15277000  0.58964500  1
  O  O67  1  1.00000000  0.50000000  0.95668000  1
  O  O68  1  0.50000000  0.50000000  0.84289000  1
  O  O69  1  0.00049200  0.50002000  0.72830400  1
  O  O70  1  0.50281100  0.53498300  0.61157800  1
  O  O71  1  0.50000000  0.50000000  0.92952000  1
  O  O72  1  1.00000000  0.50000000  0.81573000  1
  O  O73  1  0.49988600  0.50986000  0.70555600  1
  O  O74  1  0.00177800  0.51212300  0.58726200  1
  O  O75  1  0.69034000  1.00000000  1.00000000  1
  O  O76  1  0.19034000  0.00000000  0.88621000  1
  O  O77  1  0.69034000  1.00000000  0.77241000  1
  O  O78  1  0.19252900  0.99749700  0.66005100  1
  O  O79  1  0.69195300  0.97830200  0.54593200  1
  O  O80  1  0.30966000  0.00000000  1.00000000  1
  O  O81  1  0.80966000  1.00000000  0.88621000  1
  O  O82  1  0.30966000  0.00000000  0.77241000  1
  O  O83  1  0.80927100  0.99690700  0.66052300  1
  O  O84  1  0.31417800  0.97924500  0.54700100  1
