# generated using pymatgen
data_MgTiMnVZnCrFeCoCuNiSb20ClO54
_symmetry_space_group_name_H-M   'P 1'
_cell_length_a   6.68161000
_cell_length_b   9.45236300
_cell_length_c   29.30453000
_cell_angle_alpha   90.32493200
_cell_angle_beta   89.99047000
_cell_angle_gamma   89.99816800
_symmetry_Int_Tables_number   1
_chemical_formula_structural   MgTiMnVZnCrFeCoCuNiSb20ClO54
_chemical_formula_sum
'Mg1 Ti1 Mn1 V1 Zn1 Cr1 Fe1 Co1 Cu1 Ni1 Sb20 Cl1 O54'
_cell_volume   1850.75650457
_cell_formula_units_Z   1
loop_
 _symmetry_equiv_pos_site_id
 _symmetry_equiv_pos_as_xyz
  1  'x, y, z'
loop_
 _atom_site_type_symbol
 _atom_site_label
 _atom_site_symmetry_multiplicity
 _atom_site_fract_x
 _atom_site_fract_y
 _atom_site_fract_z
 _atom_site_occupancy
  Mg  Mg0  1  0.49975200  0.50712100  0.45002400  1
  Ti  Ti1  1  0.49974200  0.98633000  0.33602400  1
  Mn  Mn2  1  1.00000000  0.16768000  0.11379000  1
  V  V3  1  0.00000000  1.00000000  0.22759000  1
  Zn  Zn4  1  0.50000000  0.50000000  0.22759000  1
  Cr  Cr5  1  0.50000000  0.83232000  0.22759000  1
  Fe  Fe6  1  0.50000000  0.50000000  0.00000000  1
  Co  Co7  1  0.50000000  1.00000000  0.11379000  1
  Cu  Cu8  1  0.00045200  0.68034300  0.44974100  1
  Ni  Ni9  1  0.49942000  0.66345400  0.33511400  1
  Sb  Sb10  1  0.00000000  0.00000000  0.00000000  1
  Sb  Sb11  1  0.00121600  0.99320100  0.45740400  1
  Sb  Sb12  1  0.00000000  0.50000000  0.11379000  1
  Sb  Sb13  1  0.00008700  0.50942300  0.34275500  1
  Sb  Sb14  1  0.00000000  0.66768000  0.00000000  1
  Sb  Sb15  1  0.50000000  0.66768000  0.11379000  1
  Sb  Sb16  1  1.00000000  0.66768000  0.22759000  1
  Sb  Sb17  1  0.50000000  0.16768000  0.00000000  1
  Sb  Sb18  1  0.50000000  0.16768000  0.22759000  1
  Sb  Sb19  1  0.00042100  0.16425800  0.34055100  1
  Sb  Sb20  1  0.50076200  0.19544400  0.45562300  1
  Sb  Sb21  1  0.50000000  0.83232000  0.00000000  1
  Sb  Sb22  1  1.00000000  0.83232000  0.11379000  1
  Sb  Sb23  1  0.99941000  0.83544600  0.33947700  1
  Sb  Sb24  1  0.50092100  0.81695400  0.44574900  1
  Sb  Sb25  1  1.00000000  0.33232000  0.00000000  1
  Sb  Sb26  1  0.50000000  0.33232000  0.11379000  1
  Sb  Sb27  1  0.00000000  0.33232000  0.22759000  1
  Sb  Sb28  1  0.50017000  0.34249700  0.34295400  1
  Sb  Sb29  1  0.99743100  0.34781700  0.45550600  1
  Cl  Cl30  1  0.51613500  0.39254900  0.52637400  1
  O  O31  1  0.00000000  0.82836000  0.04494000  1
  O  O32  1  0.50000000  0.82836000  0.15874000  1
  O  O33  1  0.99980400  0.84474300  0.27065200  1
  O  O34  1  0.49927600  0.83943700  0.37877500  1
  O  O35  1  0.50000000  0.82836000  0.06885000  1
  O  O36  1  1.00000000  0.82836000  0.18264000  1
  O  O37  1  0.50049000  0.84923600  0.29259300  1
  O  O38  1  0.00081500  0.84785900  0.40614400  1
  O  O39  1  0.30253000  0.32836000  1.00000000  1
  O  O40  1  0.80253000  0.32836000  0.11379000  1
  O  O41  1  0.30253000  0.32836000  0.22759000  1
  O  O42  1  0.81241700  0.33261300  0.33673400  1
  O  O43  1  0.29581500  0.34244900  0.43672700  1
  O  O44  1  0.69747000  0.32836000  0.00000000  1
  O  O45  1  0.19747000  0.32836000  0.11379000  1
  O  O46  1  0.69747000  0.32836000  0.22759000  1
  O  O47  1  0.18805000  0.33273600  0.33669500  1
  O  O48  1  0.70270400  0.34199900  0.43408600  1
  O  O49  1  0.30253000  0.67164000  1.00000000  1
  O  O50  1  0.80253000  0.67164000  0.11379000  1
  O  O51  1  0.30253000  0.67164000  0.22759000  1
  O  O52  1  0.80523300  0.67245000  0.33702700  1
  O  O53  1  0.29550900  0.67301400  0.45725800  1
  O  O54  1  0.69747000  0.67164000  0.00000000  1
  O  O55  1  0.19747000  0.67164000  0.11379000  1
  O  O56  1  0.69747000  0.67164000  0.22759000  1
  O  O57  1  0.19391900  0.67271600  0.33649900  1
  O  O58  1  0.70520000  0.67224400  0.45703200  1
  O  O59  1  1.00000000  0.17164000  0.04494000  1
  O  O60  1  0.50000000  0.17164000  0.15874000  1
  O  O61  1  0.99978400  0.15531300  0.27066400  1
  O  O62  1  0.49751300  0.16262100  0.38016700  1
  O  O63  1  0.50000000  0.17164000  0.06885000  1
  O  O64  1  0.00000000  0.17164000  0.18264000  1
  O  O65  1  0.50042800  0.16909600  0.29659000  1
  O  O66  1  0.00149300  0.16149400  0.40868300  1
  O  O67  1  1.00000000  0.50000000  0.04332000  1
  O  O68  1  0.50000000  0.50000000  0.15711000  1
  O  O69  1  0.99950800  0.50002000  0.27169600  1
  O  O70  1  0.49670800  0.51467900  0.38043900  1
  O  O71  1  0.50000000  0.50000000  0.07048000  1
  O  O72  1  1.00000000  0.50000000  0.18427000  1
  O  O73  1  0.50211900  0.49164000  0.29595300  1
  O  O74  1  0.00222600  0.50628900  0.40887400  1
  O  O75  1  0.30966000  0.00000000  1.00000000  1
  O  O76  1  0.80966000  1.00000000  0.11379000  1
  O  O77  1  0.30966000  0.00000000  0.22759000  1
  O  O78  1  0.80409000  0.00274900  0.33780800  1
  O  O79  1  0.30941400  0.97356500  0.45726900  1
  O  O80  1  0.69034000  1.00000000  0.00000000  1
  O  O81  1  0.19034000  0.00000000  0.11379000  1
  O  O82  1  0.69034000  1.00000000  0.22759000  1
  O  O83  1  0.19573000  0.00225300  0.33744100  1
  O  O84  1  0.69332600  0.97308700  0.45685700  1
