# generated using pymatgen
data_MgTiMnVZnCrFeCoCuNiSb20ClO54
_symmetry_space_group_name_H-M   'P 1'
_cell_length_a   6.63530600
_cell_length_b   9.51827000
_cell_length_c   29.07482200
_cell_angle_alpha   89.76334900
_cell_angle_beta   90.52194600
_cell_angle_gamma   89.84730000
_symmetry_Int_Tables_number   1
_chemical_formula_structural   MgTiMnVZnCrFeCoCuNiSb20ClO54
_chemical_formula_sum
'Mg1 Ti1 Mn1 V1 Zn1 Cr1 Fe1 Co1 Cu1 Ni1 Sb20 Cl1 O54'
_cell_volume   1836.16933137
_cell_formula_units_Z   1
loop_
 _symmetry_equiv_pos_site_id
 _symmetry_equiv_pos_as_xyz
  1  'x, y, z'
loop_
 _atom_site_type_symbol
 _atom_site_label
 _atom_site_symmetry_multiplicity
 _atom_site_fract_x
 _atom_site_fract_y
 _atom_site_fract_z
 _atom_site_occupancy
  Mg  Mg0  1  0.49731000  0.49768600  0.45339600  1
  Ti  Ti1  1  0.99451400  0.99479800  0.44206300  1
  Mn  Mn2  1  0.50000000  0.83232000  0.00000000  1
  V  V3  1  0.00000000  0.66768000  0.22759000  1
  Zn  Zn4  1  0.00000000  0.00000000  0.00000000  1
  Cr  Cr5  1  0.50863900  0.99805900  0.34174100  1
  Fe  Fe6  1  0.50000000  0.50000000  0.00000000  1
  Co  Co7  1  0.00000000  0.16768000  0.11379000  1
  Cu  Cu8  1  0.50000000  0.50000000  0.22759000  1
  Ni  Ni9  1  0.00000000  0.50000000  0.11379000  1
  Sb  Sb10  1  0.50000000  0.00000000  0.11379000  1
  Sb  Sb11  1  0.00000000  1.00000000  0.22759000  1
  Sb  Sb12  1  0.99800000  0.49797200  0.34513000  1
  Sb  Sb13  1  0.00000000  0.33232000  0.00000000  1
  Sb  Sb14  1  0.50000000  0.33232000  0.11379000  1
  Sb  Sb15  1  0.00000000  0.33232000  0.22759000  1
  Sb  Sb16  1  0.50538100  0.32843300  0.34252700  1
  Sb  Sb17  1  0.02913300  0.31915800  0.47094800  1
  Sb  Sb18  1  0.00000000  0.83232000  0.11379000  1
  Sb  Sb19  1  0.50000000  0.83232000  0.22759000  1
  Sb  Sb20  1  0.00314300  0.83381900  0.34082400  1
  Sb  Sb21  1  0.50303900  0.82239800  0.45732000  1
  Sb  Sb22  1  0.50000000  0.16768000  0.00000000  1
  Sb  Sb23  1  0.50000000  0.16768000  0.22759000  1
  Sb  Sb24  1  0.00513800  0.16059900  0.34242400  1
  Sb  Sb25  1  0.51078600  0.17274500  0.45933900  1
  Sb  Sb26  1  1.00000000  0.66768000  0.00000000  1
  Sb  Sb27  1  0.50000000  0.66768000  0.11379000  1
  Sb  Sb28  1  0.50622300  0.66709700  0.34029700  1
  Sb  Sb29  1  0.01670300  0.67478300  0.47157000  1
  Cl  Cl30  1  0.25164000  0.49385500  0.53030300  1
  O  O31  1  1.00000000  0.17164000  0.04494000  1
  O  O32  1  0.50000000  0.17164000  0.15874000  1
  O  O33  1  0.00019600  0.15525700  0.27065200  1
  O  O34  1  0.52620300  0.15397800  0.38536100  1
  O  O35  1  0.50000000  0.17164000  0.06885000  1
  O  O36  1  0.00000000  0.17164000  0.18264000  1
  O  O37  1  0.49677400  0.15637300  0.29761700  1
  O  O38  1  0.99250400  0.17352800  0.40945200  1
  O  O39  1  0.69747000  0.67164000  1.00000000  1
  O  O40  1  0.19747000  0.67164000  0.11379000  1
  O  O41  1  0.69747000  0.67164000  0.22759000  1
  O  O42  1  0.20367300  0.67899200  0.33618300  1
  O  O43  1  0.69204200  0.65917700  0.46350500  1
  O  O44  1  0.30253000  0.67164000  0.00000000  1
  O  O45  1  0.80253000  0.67164000  0.11379000  1
  O  O46  1  0.30253000  0.67164000  0.22759000  1
  O  O47  1  0.80544700  0.68027800  0.33070500  1
  O  O48  1  0.30609100  0.66972900  0.44302900  1
  O  O49  1  0.69747000  0.32836000  1.00000000  1
  O  O50  1  0.19747000  0.32836000  0.11379000  1
  O  O51  1  0.69747000  0.32836000  0.22759000  1
  O  O52  1  0.20331700  0.31488300  0.33495200  1
  O  O53  1  0.69776400  0.33316700  0.46240000  1
  O  O54  1  0.30253000  0.32836000  0.00000000  1
  O  O55  1  0.80253000  0.32836000  0.11379000  1
  O  O56  1  0.30253000  0.32836000  0.22759000  1
  O  O57  1  0.80486600  0.31309600  0.33160100  1
  O  O58  1  0.31291500  0.32832700  0.44060900  1
  O  O59  1  0.00000000  0.82836000  0.04494000  1
  O  O60  1  0.50000000  0.82836000  0.15874000  1
  O  O61  1  0.00021600  0.84468700  0.27066400  1
  O  O62  1  0.52098600  0.83609500  0.38354000  1
  O  O63  1  0.50000000  0.82836000  0.06885000  1
  O  O64  1  1.00000000  0.82836000  0.18264000  1
  O  O65  1  0.49612900  0.84164800  0.29721600  1
  O  O66  1  0.97336300  0.81925800  0.40827000  1
  O  O67  1  0.00000000  0.50000000  0.04332000  1
  O  O68  1  0.50000000  0.50000000  0.15711000  1
  O  O69  1  0.00049200  0.49998000  0.27169600  1
  O  O70  1  0.54103500  0.50110300  0.38368000  1
  O  O71  1  0.50000000  0.50000000  0.07048000  1
  O  O72  1  0.00000000  0.50000000  0.18427000  1
  O  O73  1  0.49489400  0.49760300  0.29737300  1
  O  O74  1  0.99523000  0.49728900  0.43588900  1
  O  O75  1  0.69034000  0.00000000  1.00000000  1
  O  O76  1  0.19034000  0.00000000  0.11379000  1
  O  O77  1  0.69034000  0.00000000  0.22759000  1
  O  O78  1  0.20247000  0.99640300  0.34453500  1
  O  O79  1  0.78228400  0.00923500  0.47640100  1
  O  O80  1  0.30966000  0.00000000  0.00000000  1
  O  O81  1  0.80966000  0.00000000  0.11379000  1
  O  O82  1  0.30966000  0.00000000  0.22759000  1
  O  O83  1  0.80894600  0.99812300  0.33948400  1
  O  O84  1  0.21191000  0.97800500  0.47483500  1
