# generated using pymatgen
data_MgTiMnVZnCrFeCoCuNiSb20ClO54
_symmetry_space_group_name_H-M   'P 1'
_cell_length_a   6.64052700
_cell_length_b   9.40388600
_cell_length_c   29.07965400
_cell_angle_alpha   90.24020800
_cell_angle_beta   89.95280400
_cell_angle_gamma   89.95913300
_symmetry_Int_Tables_number   1
_chemical_formula_structural   MgTiMnVZnCrFeCoCuNiSb20ClO54
_chemical_formula_sum
'Mg1 Ti1 Mn1 V1 Zn1 Cr1 Fe1 Co1 Cu1 Ni1 Sb20 Cl1 O54'
_cell_volume   1815.91310068
_cell_formula_units_Z   1
loop_
 _symmetry_equiv_pos_site_id
 _symmetry_equiv_pos_as_xyz
  1  'x, y, z'
loop_
 _atom_site_type_symbol
 _atom_site_label
 _atom_site_symmetry_multiplicity
 _atom_site_fract_x
 _atom_site_fract_y
 _atom_site_fract_z
 _atom_site_occupancy
  Mg  Mg0  1  0.50000000  0.83232000  0.77241000  1
  Ti  Ti1  1  0.00000000  0.66768000  0.77241000  1
  Mn  Mn2  1  0.00000000  0.83232000  0.88621000  1
  V  V3  1  0.00000000  0.16768000  0.88621000  1
  Zn  Zn4  1  0.50000000  0.66768000  0.88621000  1
  Cr  Cr5  1  0.50262600  0.49813700  0.54619300  1
  Fe  Fe6  1  0.00144700  0.66094700  0.55132700  1
  Co  Co7  1  0.50000000  0.83232000  1.00000000  1
  Cu  Cu8  1  0.50000000  0.16768000  0.77241000  1
  Ni  Ni9  1  0.00131000  0.16470900  0.65782800  1
  Sb  Sb10  1  0.00000000  0.00000000  0.00000000  1
  Sb  Sb11  1  0.50000000  1.00000000  0.88621000  1
  Sb  Sb12  1  0.00000000  0.00000000  0.77241000  1
  Sb  Sb13  1  0.50138600  0.99752800  0.65515400  1
  Sb  Sb14  1  0.00251600  0.99095500  0.54255400  1
  Sb  Sb15  1  0.50000000  0.50000000  1.00000000  1
  Sb  Sb16  1  0.00000000  0.50000000  0.88621000  1
  Sb  Sb17  1  0.50000000  0.50000000  0.77241000  1
  Sb  Sb18  1  0.00050200  0.48839500  0.65832500  1
  Sb  Sb19  1  0.00000000  0.33232000  1.00000000  1
  Sb  Sb20  1  0.50000000  0.33232000  0.88621000  1
  Sb  Sb21  1  0.00000000  0.33232000  0.77241000  1
  Sb  Sb22  1  0.50056100  0.32501600  0.65370000  1
  Sb  Sb23  1  0.00214400  0.33448100  0.54219500  1
  Sb  Sb24  1  0.00114700  0.84295900  0.65921300  1
  Sb  Sb25  1  0.50167000  0.81824100  0.52815800  1
  Sb  Sb26  1  0.50000000  0.16768000  1.00000000  1
  Sb  Sb27  1  0.50152700  0.17086400  0.53395500  1
  Sb  Sb28  1  0.00000000  0.66768000  1.00000000  1
  Sb  Sb29  1  0.50109000  0.67007100  0.65768100  1
  Cl  Cl30  1  0.50189700  0.47634500  0.46997600  1
  O  O31  1  0.00000000  0.17164000  0.95506000  1
  O  O32  1  0.50000000  0.17164000  0.84126000  1
  O  O33  1  0.99980400  0.15525700  0.72934800  1
  O  O34  1  0.50133400  0.16126900  0.60899000  1
  O  O35  1  0.50000000  0.17164000  0.93115000  1
  O  O36  1  0.00000000  0.17164000  0.81736000  1
  O  O37  1  0.49963900  0.16488400  0.69801400  1
  O  O38  1  0.00186600  0.16425900  0.58516100  1
  O  O39  1  0.30253000  0.67164000  1.00000000  1
  O  O40  1  0.80253000  0.67164000  0.88621000  1
  O  O41  1  0.30253000  0.67164000  0.77241000  1
  O  O42  1  0.81094300  0.66481600  0.65992400  1
  O  O43  1  0.29226800  0.65491900  0.54451800  1
  O  O44  1  0.69747000  0.67164000  1.00000000  1
  O  O45  1  0.19747000  0.67164000  0.88621000  1
  O  O46  1  0.69747000  0.67164000  0.77241000  1
  O  O47  1  0.19138000  0.66444700  0.66020400  1
  O  O48  1  0.71094800  0.65463800  0.54421400  1
  O  O49  1  0.30253000  0.32836000  1.00000000  1
  O  O50  1  0.80253000  0.32836000  0.88621000  1
  O  O51  1  0.30253000  0.32836000  0.77241000  1
  O  O52  1  0.80316800  0.32934600  0.65991800  1
  O  O53  1  0.31439700  0.34399600  0.55598300  1
  O  O54  1  0.69747000  0.32836000  1.00000000  1
  O  O55  1  0.19747000  0.32836000  0.88621000  1
  O  O56  1  0.69747000  0.32836000  0.77241000  1
  O  O57  1  0.19800100  0.32961900  0.65984100  1
  O  O58  1  0.69095500  0.34246100  0.55555300  1
  O  O59  1  0.00000000  0.82836000  0.95506000  1
  O  O60  1  0.50000000  0.82836000  0.84126000  1
  O  O61  1  0.99978400  0.84468700  0.72933600  1
  O  O62  1  0.50273700  0.82410300  0.61129800  1
  O  O63  1  0.50000000  0.82836000  0.93115000  1
  O  O64  1  0.00000000  0.82836000  0.81736000  1
  O  O65  1  0.49945000  0.83347200  0.70024600  1
  O  O66  1  0.00033800  0.83067800  0.59008600  1
  O  O67  1  0.00000000  0.50000000  0.95668000  1
  O  O68  1  0.50000000  0.50000000  0.84289000  1
  O  O69  1  0.99950800  0.49998000  0.72830400  1
  O  O70  1  0.50259100  0.50510400  0.61506700  1
  O  O71  1  0.50000000  0.50000000  0.92952000  1
  O  O72  1  0.00000000  0.50000000  0.81573000  1
  O  O73  1  0.50105500  0.49693500  0.70163900  1
  O  O74  1  0.00160300  0.49400600  0.59015400  1
  O  O75  1  0.30966000  0.00000000  0.00000000  1
  O  O76  1  0.80966000  1.00000000  0.88621000  1
  O  O77  1  0.30966000  1.00000000  0.77241000  1
  O  O78  1  0.80365100  0.00164000  0.65683800  1
  O  O79  1  0.31256600  0.98924700  0.55209400  1
  O  O80  1  0.69034000  1.00000000  1.00000000  1
  O  O81  1  0.19034000  0.00000000  0.88621000  1
  O  O82  1  0.69034000  1.00000000  0.77241000  1
  O  O83  1  0.19847500  0.00177000  0.65687000  1
  O  O84  1  0.69229900  0.98957400  0.55116000  1
