# generated using pymatgen
data_MgTiMnVZnCrFeCoCuNiSb20ClO54
_symmetry_space_group_name_H-M   'P 1'
_cell_length_a   6.70793300
_cell_length_b   9.55192400
_cell_length_c   29.59977500
_cell_angle_alpha   90.21140400
_cell_angle_beta   89.97405900
_cell_angle_gamma   89.99506600
_symmetry_Int_Tables_number   1
_chemical_formula_structural   MgTiMnVZnCrFeCoCuNiSb20ClO54
_chemical_formula_sum
'Mg1 Ti1 Mn1 V1 Zn1 Cr1 Fe1 Co1 Cu1 Ni1 Sb20 Cl1 O54'
_cell_volume   1896.55299187
_cell_formula_units_Z   1
loop_
 _symmetry_equiv_pos_site_id
 _symmetry_equiv_pos_as_xyz
  1  'x, y, z'
loop_
 _atom_site_type_symbol
 _atom_site_label
 _atom_site_symmetry_multiplicity
 _atom_site_fract_x
 _atom_site_fract_y
 _atom_site_fract_z
 _atom_site_occupancy
  Mg  Mg0  1  0.00000000  1.00000000  0.22759000  1
  Ti  Ti1  1  0.50075400  0.83363400  0.43137800  1
  Mn  Mn2  1  1.00000000  0.50000000  0.11379000  1
  V  V3  1  0.50000000  0.83232000  0.00000000  1
  Zn  Zn4  1  0.99938500  0.51659700  0.34221600  1
  Cr  Cr5  1  0.50120600  0.52254500  0.44068900  1
  Fe  Fe6  1  0.50033900  0.68325300  0.32877700  1
  Co  Co7  1  0.50000000  0.83232000  0.22759000  1
  Cu  Cu8  1  0.00112100  0.78903300  0.32895700  1
  Ni  Ni9  1  0.49634600  0.00600000  0.33637200  1
  Sb  Sb10  1  0.00000000  0.00000000  0.00000000  1
  Sb  Sb11  1  0.50000000  0.00000000  0.11379000  1
  Sb  Sb12  1  0.00071000  0.98242400  0.40814100  1
  Sb  Sb13  1  0.50000000  0.50000000  0.00000000  1
  Sb  Sb14  1  0.50000000  0.50000000  0.22759000  1
  Sb  Sb15  1  0.00000000  0.66768000  0.00000000  1
  Sb  Sb16  1  0.50000000  0.66768000  0.11379000  1
  Sb  Sb17  1  0.00000000  0.66768000  0.22759000  1
  Sb  Sb18  1  0.99991900  0.67727300  0.45170000  1
  Sb  Sb19  1  0.50000000  0.16768000  0.00000000  1
  Sb  Sb20  1  1.00000000  0.16768000  0.11379000  1
  Sb  Sb21  1  0.50000000  0.16768000  0.22759000  1
  Sb  Sb22  1  0.00042400  0.18321200  0.33594000  1
  Sb  Sb23  1  0.50027500  0.19773700  0.44978600  1
  Sb  Sb24  1  0.00000000  0.83232000  0.11379000  1
  Sb  Sb25  1  0.00000000  0.33232000  0.00000000  1
  Sb  Sb26  1  0.50000000  0.33232000  0.11379000  1
  Sb  Sb27  1  0.00000000  0.33232000  0.22759000  1
  Sb  Sb28  1  0.49979200  0.34078500  0.34083900  1
  Sb  Sb29  1  0.99891200  0.34706400  0.45638200  1
  Cl  Cl30  1  0.51725700  0.50845300  0.51773000  1
  O  O31  1  0.00000000  0.82836000  0.04494000  1
  O  O32  1  0.50000000  0.82836000  0.15874000  1
  O  O33  1  0.99980400  0.84474300  0.27065200  1
  O  O34  1  0.49947600  0.83249900  0.37171900  1
  O  O35  1  0.50000000  0.82836000  0.06885000  1
  O  O36  1  1.00000000  0.82836000  0.18264000  1
  O  O37  1  0.50000500  0.83461700  0.29049400  1
  O  O38  1  0.00188200  0.78324900  0.39388900  1
  O  O39  1  0.30253000  0.32836000  1.00000000  1
  O  O40  1  0.80253000  0.32836000  0.11379000  1
  O  O41  1  0.30253000  0.32836000  0.22759000  1
  O  O42  1  0.80391500  0.33992700  0.33726800  1
  O  O43  1  0.31114100  0.36127300  0.44237000  1
  O  O44  1  0.69747000  0.32836000  0.00000000  1
  O  O45  1  0.19747000  0.32836000  0.11379000  1
  O  O46  1  0.69747000  0.32836000  0.22759000  1
  O  O47  1  0.19546900  0.34046600  0.33700000  1
  O  O48  1  0.69088300  0.35911800  0.43933000  1
  O  O49  1  0.30253000  0.67164000  1.00000000  1
  O  O50  1  0.80253000  0.67164000  0.11379000  1
  O  O51  1  0.30253000  0.67164000  0.22759000  1
  O  O52  1  0.76414800  0.65947300  0.33228100  1
  O  O53  1  0.32275700  0.67534200  0.44273900  1
  O  O54  1  0.69747000  0.67164000  0.00000000  1
  O  O55  1  0.19747000  0.67164000  0.11379000  1
  O  O56  1  0.69747000  0.67164000  0.22759000  1
  O  O57  1  0.23675300  0.65891600  0.33225100  1
  O  O58  1  0.67976600  0.67632300  0.44149700  1
  O  O59  1  0.00000000  0.17164000  0.04494000  1
  O  O60  1  0.50000000  0.17164000  0.15874000  1
  O  O61  1  0.99978400  0.15531300  0.27066400  1
  O  O62  1  0.49506300  0.17502000  0.38242200  1
  O  O63  1  0.50000000  0.17164000  0.06885000  1
  O  O64  1  1.00000000  0.17164000  0.18264000  1
  O  O65  1  0.49881300  0.17921000  0.29573600  1
  O  O66  1  0.00749700  0.19305100  0.40978300  1
  O  O67  1  1.00000000  0.50000000  0.04332000  1
  O  O68  1  0.50000000  0.50000000  0.15711000  1
  O  O69  1  0.99950800  0.50002000  0.27169600  1
  O  O70  1  0.49938400  0.51714000  0.37793700  1
  O  O71  1  0.50000000  0.50000000  0.07048000  1
  O  O72  1  0.00000000  0.50000000  0.18427000  1
  O  O73  1  0.50055300  0.49745100  0.29378100  1
  O  O74  1  0.00229500  0.50623800  0.41276300  1
  O  O75  1  0.30966000  1.00000000  1.00000000  1
  O  O76  1  0.80966000  0.00000000  0.11379000  1
  O  O77  1  0.30966000  1.00000000  0.22759000  1
  O  O78  1  0.81436800  0.02639400  0.35210800  1
  O  O79  1  0.25591400  0.95942500  0.44331400  1
  O  O80  1  0.69034000  0.00000000  0.00000000  1
  O  O81  1  0.19034000  1.00000000  0.11379000  1
  O  O82  1  0.69034000  0.00000000  0.22759000  1
  O  O83  1  0.18434900  0.02303700  0.35098300  1
  O  O84  1  0.74544000  0.95964300  0.44345000  1
