# generated using pymatgen
data_MgTiMnVZnCrFeCoCuNiSb20ClO54
_symmetry_space_group_name_H-M   'P 1'
_cell_length_a   6.68936200
_cell_length_b   9.61358600
_cell_length_c   28.99364600
_cell_angle_alpha   90.13302300
_cell_angle_beta   89.96672400
_cell_angle_gamma   89.99117600
_symmetry_Int_Tables_number   1
_chemical_formula_structural   MgTiMnVZnCrFeCoCuNiSb20ClO54
_chemical_formula_sum
'Mg1 Ti1 Mn1 V1 Zn1 Cr1 Fe1 Co1 Cu1 Ni1 Sb20 Cl1 O54'
_cell_volume   1864.53996932
_cell_formula_units_Z   1
loop_
 _symmetry_equiv_pos_site_id
 _symmetry_equiv_pos_as_xyz
  1  'x, y, z'
loop_
 _atom_site_type_symbol
 _atom_site_label
 _atom_site_symmetry_multiplicity
 _atom_site_fract_x
 _atom_site_fract_y
 _atom_site_fract_z
 _atom_site_occupancy
  Mg  Mg0  1  0.50000000  0.33232000  0.88621000  1
  Ti  Ti1  1  0.00000000  0.33232000  0.00000000  1
  Mn  Mn2  1  0.50041500  0.32770100  0.66022600  1
  V  V3  1  0.00090300  0.82640800  0.65519100  1
  Zn  Zn4  1  0.00000000  0.33232000  0.77241000  1
  Cr  Cr5  1  0.00223700  0.32285800  0.55072800  1
  Fe  Fe6  1  0.00273300  0.00781400  0.55307200  1
  Co  Co7  1  0.50000000  0.16768000  0.00000000  1
  Cu  Cu8  1  0.49594600  0.44556500  0.54459700  1
  Ni  Ni9  1  0.50000000  1.00000000  0.88621000  1
  Sb  Sb10  1  0.00000000  0.00000000  0.00000000  1
  Sb  Sb11  1  0.00000000  0.00000000  0.77241000  1
  Sb  Sb12  1  0.50021900  0.99947900  0.65849400  1
  Sb  Sb13  1  0.50000000  0.50000000  0.00000000  1
  Sb  Sb14  1  0.00000000  0.50000000  0.88621000  1
  Sb  Sb15  1  0.50000000  0.50000000  0.77241000  1
  Sb  Sb16  1  0.00068800  0.49507700  0.65961600  1
  Sb  Sb17  1  0.50000000  0.83232000  0.00000000  1
  Sb  Sb18  1  1.00000000  0.83232000  0.88621000  1
  Sb  Sb19  1  0.50000000  0.83232000  0.77241000  1
  Sb  Sb20  1  0.50066300  0.79643400  0.53509000  1
  Sb  Sb21  1  0.00000000  0.16768000  0.88621000  1
  Sb  Sb22  1  0.50000000  0.16768000  0.77241000  1
  Sb  Sb23  1  0.00033700  0.16266100  0.66075200  1
  Sb  Sb24  1  0.50328800  0.14820800  0.54310200  1
  Sb  Sb25  1  0.00000000  0.66768000  0.00000000  1
  Sb  Sb26  1  0.50000000  0.66768000  0.88621000  1
  Sb  Sb27  1  0.00000000  0.66768000  0.77241000  1
  Sb  Sb28  1  0.50014200  0.65193400  0.63413800  1
  Sb  Sb29  1  0.00048800  0.67258200  0.54666300  1
  Cl  Cl30  1  0.50283100  0.55385500  0.47802100  1
  O  O31  1  0.00000000  0.17164000  0.95506000  1
  O  O32  1  0.50000000  0.17164000  0.84126000  1
  O  O33  1  0.99980400  0.15525700  0.72934800  1
  O  O34  1  0.50156900  0.16322700  0.61578700  1
  O  O35  1  0.50000000  0.17164000  0.93115000  1
  O  O36  1  1.00000000  0.17164000  0.81736000  1
  O  O37  1  0.50152800  0.16330700  0.70305600  1
  O  O38  1  0.00449600  0.17878800  0.59096000  1
  O  O39  1  0.30253000  0.67164000  0.00000000  1
  O  O40  1  0.80253000  0.67164000  0.88621000  1
  O  O41  1  0.30253000  0.67164000  0.77241000  1
  O  O42  1  0.81492400  0.70345600  0.66139500  1
  O  O43  1  0.30323500  0.66456500  0.56864800  1
  O  O44  1  0.69747000  0.67164000  0.00000000  1
  O  O45  1  0.19747000  0.67164000  0.88621000  1
  O  O46  1  0.69747000  0.67164000  0.77241000  1
  O  O47  1  0.18680300  0.70329600  0.66194000  1
  O  O48  1  0.69967900  0.66666667  0.56900800  1
  O  O49  1  0.30253000  0.32836000  0.00000000  1
  O  O50  1  0.80253000  0.32836000  0.88621000  1
  O  O51  1  0.30253000  0.32836000  0.77241000  1
  O  O52  1  0.80245700  0.32122300  0.66169200  1
  O  O53  1  0.21367300  0.32171100  0.52237200  1
  O  O54  1  0.69747000  0.32836000  0.00000000  1
  O  O55  1  0.19747000  0.32836000  0.88621000  1
  O  O56  1  0.69747000  0.32836000  0.77241000  1
  O  O57  1  0.19871400  0.32091700  0.66229600  1
  O  O58  1  0.79067000  0.32011500  0.52258700  1
  O  O59  1  0.00000000  0.82836000  0.95506000  1
  O  O60  1  0.50000000  0.82836000  0.84126000  1
  O  O61  1  0.99978400  0.84468700  0.72933600  1
  O  O62  1  0.49754200  0.86421600  0.60864900  1
  O  O63  1  0.50000000  0.82836000  0.93115000  1
  O  O64  1  0.00000000  0.82836000  0.81736000  1
  O  O65  1  0.50145300  0.84354900  0.70359100  1
  O  O66  1  0.00270200  0.83928900  0.59315600  1
  O  O67  1  0.00000000  0.50000000  0.95668000  1
  O  O68  1  0.50000000  0.50000000  0.84289000  1
  O  O69  1  0.99950800  0.49998000  0.72830400  1
  O  O70  1  0.49928900  0.43820600  0.61047000  1
  O  O71  1  0.50000000  0.50000000  0.92952000  1
  O  O72  1  0.00000000  0.50000000  0.81573000  1
  O  O73  1  0.50089900  0.48371600  0.70002300  1
  O  O74  1  0.00120300  0.48603700  0.58063500  1
  O  O75  1  0.30966000  0.00000000  1.00000000  1
  O  O76  1  0.80966000  1.00000000  0.88621000  1
  O  O77  1  0.30966000  0.00000000  0.77241000  1
  O  O78  1  0.80878600  0.00033300  0.65987300  1
  O  O79  1  0.27930800  0.00469400  0.53932500  1
  O  O80  1  0.69034000  1.00000000  1.00000000  1
  O  O81  1  0.19034000  0.00000000  0.88621000  1
  O  O82  1  0.69034000  1.00000000  0.77241000  1
  O  O83  1  0.19230500  0.00062300  0.66016200  1
  O  O84  1  0.72521500  0.00369100  0.53997400  1
