# generated using pymatgen
data_MgTiMnVZnCrFeCoCuNiSb20ClO54
_symmetry_space_group_name_H-M   'P 1'
_cell_length_a   6.71875000
_cell_length_b   9.48379200
_cell_length_c   29.26235000
_cell_angle_alpha   90.18818200
_cell_angle_beta   89.92864100
_cell_angle_gamma   89.86592100
_symmetry_Int_Tables_number   1
_chemical_formula_structural   MgTiMnVZnCrFeCoCuNiSb20ClO54
_chemical_formula_sum
'Mg1 Ti1 Mn1 V1 Zn1 Cr1 Fe1 Co1 Cu1 Ni1 Sb20 Cl1 O54'
_cell_volume   1864.55771067
_cell_formula_units_Z   1
loop_
 _symmetry_equiv_pos_site_id
 _symmetry_equiv_pos_as_xyz
  1  'x, y, z'
loop_
 _atom_site_type_symbol
 _atom_site_label
 _atom_site_symmetry_multiplicity
 _atom_site_fract_x
 _atom_site_fract_y
 _atom_site_fract_z
 _atom_site_occupancy
  Mg  Mg0  1  0.99078800  0.32285100  0.55270000  1
  Ti  Ti1  1  0.50000000  0.16768000  0.77241000  1
  Mn  Mn2  1  0.50000000  0.16768000  0.00000000  1
  V  V3  1  0.50000000  0.83232000  0.77241000  1
  Zn  Zn4  1  0.50000000  0.66768000  0.88621000  1
  Cr  Cr5  1  1.00000000  0.50000000  0.88621000  1
  Fe  Fe6  1  1.00000000  0.66768000  0.77241000  1
  Co  Co7  1  0.50189400  0.99521200  0.66407800  1
  Cu  Cu8  1  0.48992800  0.51033800  0.54347900  1
  Ni  Ni9  1  0.50258200  0.83754000  0.55070900  1
  Sb  Sb10  1  0.00000000  0.00000000  0.00000000  1
  Sb  Sb11  1  0.50000000  0.00000000  0.88621000  1
  Sb  Sb12  1  1.00000000  0.00000000  0.77241000  1
  Sb  Sb13  1  0.99901900  0.97507200  0.53931000  1
  Sb  Sb14  1  0.50000000  0.50000000  0.00000000  1
  Sb  Sb15  1  0.50000000  0.50000000  0.77241000  1
  Sb  Sb16  1  0.99984900  0.49982400  0.65978900  1
  Sb  Sb17  1  1.00000000  0.66768000  0.00000000  1
  Sb  Sb18  1  0.50038200  0.67671200  0.65650500  1
  Sb  Sb19  1  0.00199100  0.65467400  0.54274500  1
  Sb  Sb20  1  1.00000000  0.16768000  0.88621000  1
  Sb  Sb21  1  0.00341200  0.15183900  0.65205900  1
  Sb  Sb22  1  0.49512300  0.16797000  0.55065900  1
  Sb  Sb23  1  0.50000000  0.83232000  0.00000000  1
  Sb  Sb24  1  1.00000000  0.83232000  0.88621000  1
  Sb  Sb25  1  0.00062100  0.83664700  0.66098600  1
  Sb  Sb26  1  0.00000000  0.33232000  0.00000000  1
  Sb  Sb27  1  0.50000000  0.33232000  0.88621000  1
  Sb  Sb28  1  1.00000000  0.33232000  0.77241000  1
  Sb  Sb29  1  0.50111400  0.33498600  0.65860600  1
  Cl  Cl30  1  0.47477600  0.51169300  0.46931400  1
  O  O31  1  1.00000000  0.82836000  0.95506000  1
  O  O32  1  0.50000000  0.82836000  0.84126000  1
  O  O33  1  0.00019600  0.84474300  0.72934800  1
  O  O34  1  0.50632800  0.84132700  0.61810000  1
  O  O35  1  0.50000000  0.82836000  0.93115000  1
  O  O36  1  0.00000000  0.82836000  0.81736000  1
  O  O37  1  0.50034900  0.82744400  0.70818200  1
  O  O38  1  0.00404400  0.82788100  0.59146500  1
  O  O39  1  0.69747000  0.32836000  0.00000000  1
  O  O40  1  0.19747000  0.32836000  0.88621000  1
  O  O41  1  0.69747000  0.32836000  0.77241000  1
  O  O42  1  0.20450600  0.34739800  0.66076600  1
  O  O43  1  0.69498000  0.31354600  0.54165900  1
  O  O44  1  0.30253000  0.32836000  0.00000000  1
  O  O45  1  0.80253000  0.32836000  0.88621000  1
  O  O46  1  0.30253000  0.32836000  0.77241000  1
  O  O47  1  0.79811900  0.34490400  0.66063500  1
  O  O48  1  0.28316400  0.30286600  0.54169700  1
  O  O49  1  0.69747000  0.67164000  0.00000000  1
  O  O50  1  0.19747000  0.67164000  0.88621000  1
  O  O51  1  0.69747000  0.67164000  0.77241000  1
  O  O52  1  0.18996100  0.66774700  0.66193000  1
  O  O53  1  0.70155900  0.69624100  0.54472900  1
  O  O54  1  0.30253000  0.67164000  0.00000000  1
  O  O55  1  0.80253000  0.67164000  0.88621000  1
  O  O56  1  0.30253000  0.67164000  0.77241000  1
  O  O57  1  0.81125300  0.66870800  0.66187700  1
  O  O58  1  0.31608300  0.68946200  0.54891600  1
  O  O59  1  1.00000000  0.17164000  0.95506000  1
  O  O60  1  0.50000000  0.17164000  0.84126000  1
  O  O61  1  0.00021600  0.15531300  0.72933600  1
  O  O62  1  0.50006300  0.16546000  0.61879300  1
  O  O63  1  0.50000000  0.17164000  0.93115000  1
  O  O64  1  1.00000000  0.17164000  0.81736000  1
  O  O65  1  0.50079500  0.17904800  0.70597900  1
  O  O66  1  0.99032000  0.13654000  0.58134000  1
  O  O67  1  0.00000000  0.50000000  0.95668000  1
  O  O68  1  0.50000000  0.50000000  0.84289000  1
  O  O69  1  0.00049200  0.50002000  0.72830400  1
  O  O70  1  0.50309500  0.50287200  0.61435100  1
  O  O71  1  0.50000000  0.50000000  0.92952000  1
  O  O72  1  0.00000000  0.50000000  0.81573000  1
  O  O73  1  0.50199700  0.50468200  0.70234300  1
  O  O74  1  0.99883300  0.49916400  0.59178100  1
  O  O75  1  0.69034000  1.00000000  0.00000000  1
  O  O76  1  0.19034000  0.00000000  0.88621000  1
  O  O77  1  0.69034000  0.00000000  0.77241000  1
  O  O78  1  0.20517700  0.98739600  0.66036800  1
  O  O79  1  0.67819900  0.99592600  0.54313700  1
  O  O80  1  0.30966000  1.00000000  0.00000000  1
  O  O81  1  0.80966000  0.00000000  0.88621000  1
  O  O82  1  0.30966000  0.00000000  0.77241000  1
  O  O83  1  0.79882200  0.98976200  0.66109500  1
  O  O84  1  0.31763600  0.99281500  0.54505300  1
