# generated using pymatgen
data_MgTiMnVZnCrFeCoCuNiSb20ClO54
_symmetry_space_group_name_H-M   'P 1'
_cell_length_a   6.62078600
_cell_length_b   9.42632400
_cell_length_c   29.45339600
_cell_angle_alpha   89.74727500
_cell_angle_beta   89.97030700
_cell_angle_gamma   89.96683700
_symmetry_Int_Tables_number   1
_chemical_formula_structural   MgTiMnVZnCrFeCoCuNiSb20ClO54
_chemical_formula_sum
'Mg1 Ti1 Mn1 V1 Zn1 Cr1 Fe1 Co1 Cu1 Ni1 Sb20 Cl1 O54'
_cell_volume   1838.15840771
_cell_formula_units_Z   1
loop_
 _symmetry_equiv_pos_site_id
 _symmetry_equiv_pos_as_xyz
  1  'x, y, z'
loop_
 _atom_site_type_symbol
 _atom_site_label
 _atom_site_symmetry_multiplicity
 _atom_site_fract_x
 _atom_site_fract_y
 _atom_site_fract_z
 _atom_site_occupancy
  Mg  Mg0  1  0.50000000  0.83232000  0.77241000  1
  Ti  Ti1  1  0.49990500  0.67273000  0.65714000  1
  Mn  Mn2  1  1.00000000  0.33232000  0.77241000  1
  V  V3  1  0.50000000  0.16768000  0.00000000  1
  Zn  Zn4  1  0.50000000  0.83232000  0.00000000  1
  Cr  Cr5  1  1.00000000  0.50000000  0.88621000  1
  Fe  Fe6  1  0.99999700  0.16940400  0.66381000  1
  Co  Co7  1  0.99898900  0.34252200  0.55372400  1
  Cu  Cu8  1  0.50021400  0.50150600  0.54917200  1
  Ni  Ni9  1  1.00000000  0.16768000  0.88621000  1
  Sb  Sb10  1  0.00000000  0.00000000  0.00000000  1
  Sb  Sb11  1  0.50000000  1.00000000  0.88621000  1
  Sb  Sb12  1  1.00000000  0.00000000  0.77241000  1
  Sb  Sb13  1  0.49985300  0.99707900  0.65753000  1
  Sb  Sb14  1  0.99866900  0.01645600  0.55807800  1
  Sb  Sb15  1  0.50000000  0.50000000  0.00000000  1
  Sb  Sb16  1  0.50000000  0.50000000  0.77241000  1
  Sb  Sb17  1  0.99938400  0.50020000  0.65984200  1
  Sb  Sb18  1  1.00000000  0.66768000  0.00000000  1
  Sb  Sb19  1  0.50000000  0.66768000  0.88621000  1
  Sb  Sb20  1  1.00000000  0.66768000  0.77241000  1
  Sb  Sb21  1  0.00012200  0.61515900  0.53227300  1
  Sb  Sb22  1  0.50000000  0.16768000  0.77241000  1
  Sb  Sb23  1  0.49981100  0.22572100  0.51323000  1
  Sb  Sb24  1  1.00000000  0.83232000  0.88621000  1
  Sb  Sb25  1  0.00001500  0.83676900  0.65758500  1
  Sb  Sb26  1  0.49954700  0.82384200  0.53847100  1
  Sb  Sb27  1  0.00000000  0.33232000  0.00000000  1
  Sb  Sb28  1  0.50000000  0.33232000  0.88621000  1
  Sb  Sb29  1  0.50022200  0.33684600  0.65649500  1
  Cl  Cl30  1  0.50432600  0.41755300  0.45513600  1
  O  O31  1  1.00000000  0.82836000  0.95506000  1
  O  O32  1  0.50000000  0.82836000  0.84126000  1
  O  O33  1  0.00019600  0.84474300  0.72934800  1
  O  O34  1  0.49991100  0.83030600  0.61182400  1
  O  O35  1  0.50000000  0.82836000  0.93115000  1
  O  O36  1  1.00000000  0.82836000  0.81736000  1
  O  O37  1  0.49907600  0.83125700  0.70001600  1
  O  O38  1  0.99754900  0.83102700  0.59037100  1
  O  O39  1  0.69747000  0.32836000  1.00000000  1
  O  O40  1  0.19747000  0.32836000  0.88621000  1
  O  O41  1  0.69747000  0.32836000  0.77241000  1
  O  O42  1  0.19630900  0.33808700  0.66263000  1
  O  O43  1  0.71401000  0.34182000  0.54546200  1
  O  O44  1  0.30253000  0.32836000  0.00000000  1
  O  O45  1  0.80253000  0.32836000  0.88621000  1
  O  O46  1  0.30253000  0.32836000  0.77241000  1
  O  O47  1  0.80369300  0.33771300  0.66287200  1
  O  O48  1  0.28410300  0.34245200  0.54511900  1
  O  O49  1  0.69747000  0.67164000  1.00000000  1
  O  O50  1  0.19747000  0.67164000  0.88621000  1
  O  O51  1  0.69747000  0.67164000  0.77241000  1
  O  O52  1  0.19530000  0.67130000  0.66259700  1
  O  O53  1  0.69722000  0.65694100  0.54470500  1
  O  O54  1  0.30253000  0.67164000  0.00000000  1
  O  O55  1  0.80253000  0.67164000  0.88621000  1
  O  O56  1  0.30253000  0.67164000  0.77241000  1
  O  O57  1  0.80429900  0.67185800  0.66288600  1
  O  O58  1  0.30363200  0.65738800  0.54459300  1
  O  O59  1  1.00000000  0.17164000  0.95506000  1
  O  O60  1  0.50000000  0.17164000  0.84126000  1
  O  O61  1  0.00021600  0.15531300  0.72933600  1
  O  O62  1  0.50063600  0.16575700  0.61609500  1
  O  O63  1  0.50000000  0.17164000  0.93115000  1
  O  O64  1  1.00000000  0.17164000  0.81736000  1
  O  O65  1  0.49829500  0.16718900  0.70335100  1
  O  O66  1  0.00187700  0.17789200  0.59809400  1
  O  O67  1  1.00000000  0.50000000  0.95668000  1
  O  O68  1  0.50000000  0.50000000  0.84289000  1
  O  O69  1  0.00049200  0.50002000  0.72830400  1
  O  O70  1  0.49985500  0.51387700  0.61955400  1
  O  O71  1  0.50000000  0.50000000  0.92952000  1
  O  O72  1  1.00000000  0.50000000  0.81573000  1
  O  O73  1  0.49995900  0.50370200  0.70392900  1
  O  O74  1  0.00006800  0.50990800  0.59338500  1
  O  O75  1  0.69034000  0.00000000  1.00000000  1
  O  O76  1  0.19034000  1.00000000  0.88621000  1
  O  O77  1  0.69034000  0.00000000  0.77241000  1
  O  O78  1  0.19542900  0.99958900  0.65893100  1
  O  O79  1  0.74141900  0.99932200  0.52993100  1
  O  O80  1  0.30966000  1.00000000  0.00000000  1
  O  O81  1  0.80966000  0.00000000  0.88621000  1
  O  O82  1  0.30966000  1.00000000  0.77241000  1
  O  O83  1  0.80429900  0.99987600  0.65913500  1
  O  O84  1  0.25707400  0.99183400  0.53034000  1
