# generated using pymatgen
data_MgTiMnVZnCrFeCoCuNiSb20ClO54
_symmetry_space_group_name_H-M   'P 1'
_cell_length_a   6.69734600
_cell_length_b   9.53400500
_cell_length_c   29.36893800
_cell_angle_alpha   89.92544400
_cell_angle_beta   89.87224200
_cell_angle_gamma   89.72376700
_symmetry_Int_Tables_number   1
_chemical_formula_structural   MgTiMnVZnCrFeCoCuNiSb20ClO54
_chemical_formula_sum
'Mg1 Ti1 Mn1 V1 Zn1 Cr1 Fe1 Co1 Cu1 Ni1 Sb20 Cl1 O54'
_cell_volume   1875.25298441
_cell_formula_units_Z   1
loop_
 _symmetry_equiv_pos_site_id
 _symmetry_equiv_pos_as_xyz
  1  'x, y, z'
loop_
 _atom_site_type_symbol
 _atom_site_label
 _atom_site_symmetry_multiplicity
 _atom_site_fract_x
 _atom_site_fract_y
 _atom_site_fract_z
 _atom_site_occupancy
  Mg  Mg0  1  0.50061100  0.66945100  0.65994700  1
  Ti  Ti1  1  0.00000000  0.50000000  0.88621000  1
  Mn  Mn2  1  0.00000000  0.83232000  0.88621000  1
  V  V3  1  0.00000000  0.33232000  0.77241000  1
  Zn  Zn4  1  0.50025700  0.35293000  0.65928900  1
  Cr  Cr5  1  0.50000000  0.83232000  0.77241000  1
  Fe  Fe6  1  0.00000000  0.66768000  1.00000000  1
  Co  Co7  1  0.00404500  0.83010400  0.66180200  1
  Cu  Cu8  1  0.49032200  0.50889100  0.55491700  1
  Ni  Ni9  1  0.52176700  0.83795700  0.55587500  1
  Sb  Sb10  1  0.00000000  0.00000000  0.00000000  1
  Sb  Sb11  1  0.50000000  1.00000000  0.88621000  1
  Sb  Sb12  1  0.00000000  0.00000000  0.77241000  1
  Sb  Sb13  1  0.50282700  0.99228000  0.66503800  1
  Sb  Sb14  1  0.99829800  0.98902800  0.54792800  1
  Sb  Sb15  1  0.50000000  0.50000000  0.00000000  1
  Sb  Sb16  1  0.50000000  0.50000000  0.77241000  1
  Sb  Sb17  1  0.99905300  0.50982000  0.65960400  1
  Sb  Sb18  1  0.50000000  0.66768000  0.88621000  1
  Sb  Sb19  1  0.00000000  0.66768000  0.77241000  1
  Sb  Sb20  1  0.02591900  0.67591500  0.54821000  1
  Sb  Sb21  1  0.50000000  0.16768000  0.00000000  1
  Sb  Sb22  1  0.00000000  0.16768000  0.88621000  1
  Sb  Sb23  1  0.50000000  0.16768000  0.77241000  1
  Sb  Sb24  1  0.99925200  0.16760900  0.66010000  1
  Sb  Sb25  1  0.48723000  0.16208000  0.55935000  1
  Sb  Sb26  1  0.50000000  0.83232000  0.00000000  1
  Sb  Sb27  1  0.00000000  0.33232000  1.00000000  1
  Sb  Sb28  1  0.50000000  0.33232000  0.88621000  1
  Sb  Sb29  1  0.97827900  0.33372200  0.54182900  1
  Cl  Cl30  1  0.45337500  0.50537600  0.48128200  1
  O  O31  1  0.00000000  0.82836000  0.95506000  1
  O  O32  1  0.50000000  0.82836000  0.84126000  1
  O  O33  1  0.00019600  0.84474300  0.72934800  1
  O  O34  1  0.51362600  0.84485100  0.62052700  1
  O  O35  1  0.50000000  0.82836000  0.93115000  1
  O  O36  1  0.00000000  0.82836000  0.81736000  1
  O  O37  1  0.49896600  0.83617900  0.70861400  1
  O  O38  1  0.01548700  0.83666900  0.59599900  1
  O  O39  1  0.69747000  0.32836000  0.00000000  1
  O  O40  1  0.19747000  0.32836000  0.88621000  1
  O  O41  1  0.69747000  0.32836000  0.77241000  1
  O  O42  1  0.18726200  0.33442500  0.65934600  1
  O  O43  1  0.66176900  0.32726400  0.55220700  1
  O  O44  1  0.30253000  0.32836000  0.00000000  1
  O  O45  1  0.80253000  0.32836000  0.88621000  1
  O  O46  1  0.30253000  0.32836000  0.77241000  1
  O  O47  1  0.81277000  0.33553300  0.66144900  1
  O  O48  1  0.27694000  0.29681700  0.54909800  1
  O  O49  1  0.69747000  0.67164000  0.00000000  1
  O  O50  1  0.19747000  0.67164000  0.88621000  1
  O  O51  1  0.69747000  0.67164000  0.77241000  1
  O  O52  1  0.18445800  0.67567800  0.66089200  1
  O  O53  1  0.73913800  0.72714000  0.53894900  1
  O  O54  1  0.30253000  0.67164000  0.00000000  1
  O  O55  1  0.80253000  0.67164000  0.88621000  1
  O  O56  1  0.30253000  0.67164000  0.77241000  1
  O  O57  1  0.81970600  0.67909500  0.66103200  1
  O  O58  1  0.35350000  0.68244700  0.55591300  1
  O  O59  1  0.00000000  0.17164000  0.95506000  1
  O  O60  1  0.50000000  0.17164000  0.84126000  1
  O  O61  1  0.00021600  0.15531300  0.72933600  1
  O  O62  1  0.50439500  0.16175700  0.62442300  1
  O  O63  1  0.50000000  0.17164000  0.93115000  1
  O  O64  1  0.00000000  0.17164000  0.81736000  1
  O  O65  1  0.50069300  0.16319900  0.70623400  1
  O  O66  1  0.97293200  0.16416100  0.58952400  1
  O  O67  1  0.00000000  0.50000000  0.95668000  1
  O  O68  1  0.50000000  0.50000000  0.84289000  1
  O  O69  1  0.00049200  0.50002000  0.72830400  1
  O  O70  1  0.51261000  0.50937900  0.61658400  1
  O  O71  1  0.50000000  0.50000000  0.92952000  1
  O  O72  1  0.00000000  0.50000000  0.81573000  1
  O  O73  1  0.49956700  0.50370100  0.70719300  1
  O  O74  1  0.99555400  0.49572100  0.58844300  1
  O  O75  1  0.69034000  0.00000000  0.00000000  1
  O  O76  1  0.19034000  1.00000000  0.88621000  1
  O  O77  1  0.69034000  0.00000000  0.77241000  1
  O  O78  1  0.19046600  0.00098100  0.66073100  1
  O  O79  1  0.68005600  0.00921000  0.54475500  1
  O  O80  1  0.30966000  1.00000000  0.00000000  1
  O  O81  1  0.80966000  0.00000000  0.88621000  1
  O  O82  1  0.30966000  1.00000000  0.77241000  1
  O  O83  1  0.81528000  0.99897000  0.66163300  1
  O  O84  1  0.31520600  0.99351200  0.55115800  1
