# generated using pymatgen
data_MgTiMnVZnCrFeCoCuNiSb20ClO54
_symmetry_space_group_name_H-M   'P 1'
_cell_length_a   6.67121000
_cell_length_b   9.50984900
_cell_length_c   29.70521700
_cell_angle_alpha   89.94797000
_cell_angle_beta   89.98405800
_cell_angle_gamma   89.85733500
_symmetry_Int_Tables_number   1
_chemical_formula_structural   MgTiMnVZnCrFeCoCuNiSb20ClO54
_chemical_formula_sum
'Mg1 Ti1 Mn1 V1 Zn1 Cr1 Fe1 Co1 Cu1 Ni1 Sb20 Cl1 O54'
_cell_volume   1884.55761953
_cell_formula_units_Z   1
loop_
 _symmetry_equiv_pos_site_id
 _symmetry_equiv_pos_as_xyz
  1  'x, y, z'
loop_
 _atom_site_type_symbol
 _atom_site_label
 _atom_site_symmetry_multiplicity
 _atom_site_fract_x
 _atom_site_fract_y
 _atom_site_fract_z
 _atom_site_occupancy
  Mg  Mg0  1  0.49972500  0.33349800  0.65693500  1
  Ti  Ti1  1  1.00000000  0.83232000  0.88621000  1
  Mn  Mn2  1  0.99428900  0.31767000  0.56704300  1
  V  V3  1  0.50000000  0.33232000  0.88621000  1
  Zn  Zn4  1  0.50000000  0.16768000  0.00000000  1
  Cr  Cr5  1  0.99985600  0.16807100  0.66142300  1
  Fe  Fe6  1  0.50542300  0.83286100  0.55291200  1
  Co  Co7  1  0.50000000  0.50000000  0.00000000  1
  Cu  Cu8  1  0.51768300  0.50876800  0.55386700  1
  Ni  Ni9  1  0.50000000  0.83232000  0.77241000  1
  Sb  Sb10  1  0.00000000  0.00000000  0.00000000  1
  Sb  Sb11  1  0.50000000  1.00000000  0.88621000  1
  Sb  Sb12  1  1.00000000  1.00000000  0.77241000  1
  Sb  Sb13  1  0.50039300  0.00314200  0.66238800  1
  Sb  Sb14  1  0.00130900  0.00449600  0.54534800  1
  Sb  Sb15  1  1.00000000  0.50000000  0.88621000  1
  Sb  Sb16  1  0.50000000  0.50000000  0.77241000  1
  Sb  Sb17  1  0.99770800  0.48141500  0.65558000  1
  Sb  Sb18  1  0.00000000  0.33232000  0.00000000  1
  Sb  Sb19  1  0.00000000  0.33232000  0.77241000  1
  Sb  Sb20  1  0.50000000  0.83232000  0.00000000  1
  Sb  Sb21  1  0.00087700  0.83979100  0.65800400  1
  Sb  Sb22  1  0.00000000  0.16768000  0.88621000  1
  Sb  Sb23  1  0.50000000  0.16768000  0.77241000  1
  Sb  Sb24  1  0.49643000  0.17248100  0.54912500  1
  Sb  Sb25  1  1.00000000  0.66768000  0.00000000  1
  Sb  Sb26  1  0.50000000  0.66768000  0.88621000  1
  Sb  Sb27  1  1.00000000  0.66768000  0.77241000  1
  Sb  Sb28  1  0.50066500  0.66791500  0.66063400  1
  Sb  Sb29  1  0.00979300  0.67152400  0.53960300  1
  Cl  Cl30  1  0.51011300  0.48224500  0.48158900  1
  O  O31  1  0.00000000  0.17164000  0.95506000  1
  O  O32  1  0.50000000  0.17164000  0.84126000  1
  O  O33  1  0.99980400  0.15525700  0.72934800  1
  O  O34  1  0.49723700  0.15575000  0.61736900  1
  O  O35  1  0.50000000  0.17164000  0.93115000  1
  O  O36  1  0.00000000  0.17164000  0.81736000  1
  O  O37  1  0.50008100  0.16594000  0.70518900  1
  O  O38  1  0.99268300  0.14158800  0.59586500  1
  O  O39  1  0.30253000  0.67164000  0.00000000  1
  O  O40  1  0.80253000  0.67164000  0.88621000  1
  O  O41  1  0.30253000  0.67164000  0.77241000  1
  O  O42  1  0.80772200  0.67741200  0.66319400  1
  O  O43  1  0.32066000  0.69298200  0.55077900  1
  O  O44  1  0.69747000  0.67164000  0.00000000  1
  O  O45  1  0.19747000  0.67164000  0.88621000  1
  O  O46  1  0.69747000  0.67164000  0.77241000  1
  O  O47  1  0.19354900  0.67630300  0.66308900  1
  O  O48  1  0.69640800  0.69912700  0.54956400  1
  O  O49  1  0.30253000  0.32836000  0.00000000  1
  O  O50  1  0.80253000  0.32836000  0.88621000  1
  O  O51  1  0.30253000  0.32836000  0.77241000  1
  O  O52  1  0.80878800  0.31080100  0.66052400  1
  O  O53  1  0.25926200  0.31261800  0.55270600  1
  O  O54  1  0.69747000  0.32836000  0.00000000  1
  O  O55  1  0.19747000  0.32836000  0.88621000  1
  O  O56  1  0.69747000  0.32836000  0.77241000  1
  O  O57  1  0.19029600  0.31160700  0.66063000  1
  O  O58  1  0.72192400  0.32462600  0.55552300  1
  O  O59  1  1.00000000  0.82836000  0.95506000  1
  O  O60  1  0.50000000  0.82836000  0.84126000  1
  O  O61  1  0.99978400  0.84468700  0.72933600  1
  O  O62  1  0.50289700  0.83841800  0.62018600  1
  O  O63  1  0.50000000  0.82836000  0.93115000  1
  O  O64  1  1.00000000  0.82836000  0.81736000  1
  O  O65  1  0.49975100  0.83471200  0.70490200  1
  O  O66  1  0.00437600  0.83522100  0.59031400  1
  O  O67  1  1.00000000  0.50000000  0.95668000  1
  O  O68  1  0.50000000  0.50000000  0.84289000  1
  O  O69  1  0.99950800  0.49998000  0.72830400  1
  O  O70  1  0.50591200  0.51151200  0.61846800  1
  O  O71  1  0.50000000  0.50000000  0.92952000  1
  O  O72  1  1.00000000  0.50000000  0.81573000  1
  O  O73  1  0.50093400  0.50369300  0.70458100  1
  O  O74  1  0.00344700  0.51436000  0.58363100  1
  O  O75  1  0.30966000  1.00000000  0.00000000  1
  O  O76  1  0.80966000  1.00000000  0.88621000  1
  O  O77  1  0.30966000  1.00000000  0.77241000  1
  O  O78  1  0.80795200  0.00146400  0.66322000  1
  O  O79  1  0.31584800  0.97975100  0.54891800  1
  O  O80  1  0.69034000  1.00000000  0.00000000  1
  O  O81  1  0.19034000  1.00000000  0.88621000  1
  O  O82  1  0.69034000  1.00000000  0.77241000  1
  O  O83  1  0.19272200  0.00152400  0.66290300  1
  O  O84  1  0.68701500  0.98188400  0.54990800  1
