# generated using pymatgen
data_MgTiMnVZnCrFeCoCuNiSb20ClO54
_symmetry_space_group_name_H-M   'P 1'
_cell_length_a   6.73142300
_cell_length_b   9.43600700
_cell_length_c   29.41121200
_cell_angle_alpha   90.49218800
_cell_angle_beta   89.88705900
_cell_angle_gamma   89.88188200
_symmetry_Int_Tables_number   1
_chemical_formula_structural   MgTiMnVZnCrFeCoCuNiSb20ClO54
_chemical_formula_sum
'Mg1 Ti1 Mn1 V1 Zn1 Cr1 Fe1 Co1 Cu1 Ni1 Sb20 Cl1 O54'
_cell_volume   1868.05755265
_cell_formula_units_Z   1
loop_
 _symmetry_equiv_pos_site_id
 _symmetry_equiv_pos_as_xyz
  1  'x, y, z'
loop_
 _atom_site_type_symbol
 _atom_site_label
 _atom_site_symmetry_multiplicity
 _atom_site_fract_x
 _atom_site_fract_y
 _atom_site_fract_z
 _atom_site_occupancy
  Mg  Mg0  1  0.50000000  0.66768000  0.88621000  1
  Ti  Ti1  1  0.50000000  0.16768000  0.00000000  1
  Mn  Mn2  1  0.00000000  0.50000000  0.88621000  1
  V  V3  1  0.00000000  0.66768000  0.77241000  1
  Zn  Zn4  1  0.50000000  0.83232000  0.77241000  1
  Cr  Cr5  1  0.99351100  0.99299900  0.55431300  1
  Fe  Fe6  1  0.50162700  0.99566600  0.66261800  1
  Co  Co7  1  0.99773500  0.49671900  0.66070100  1
  Cu  Cu8  1  0.50340200  0.49280500  0.55225700  1
  Ni  Ni9  1  0.50000000  0.50000000  0.00000000  1
  Sb  Sb10  1  0.00000000  0.00000000  0.00000000  1
  Sb  Sb11  1  0.50000000  0.00000000  0.88621000  1
  Sb  Sb12  1  0.00000000  0.00000000  0.77241000  1
  Sb  Sb13  1  0.50000000  0.50000000  0.77241000  1
  Sb  Sb14  1  0.00000000  0.66768000  0.00000000  1
  Sb  Sb15  1  0.49802200  0.67426700  0.66021800  1
  Sb  Sb16  1  0.00601200  0.65770300  0.54230600  1
  Sb  Sb17  1  0.00000000  0.16768000  0.88621000  1
  Sb  Sb18  1  0.50000000  0.16768000  0.77241000  1
  Sb  Sb19  1  0.99981400  0.16476800  0.65754100  1
  Sb  Sb20  1  0.49002500  0.18597300  0.54442300  1
  Sb  Sb21  1  0.50000000  0.83232000  0.00000000  1
  Sb  Sb22  1  0.00000000  0.83232000  0.88621000  1
  Sb  Sb23  1  0.99888500  0.82774900  0.66081900  1
  Sb  Sb24  1  0.49963100  0.81720400  0.54678900  1
  Sb  Sb25  1  0.00000000  0.33232000  0.00000000  1
  Sb  Sb26  1  0.50000000  0.33232000  0.88621000  1
  Sb  Sb27  1  0.00000000  0.33232000  0.77241000  1
  Sb  Sb28  1  0.49974100  0.32427900  0.65453800  1
  Sb  Sb29  1  0.99499000  0.33279900  0.54374200  1
  Cl  Cl30  1  0.45844000  0.41086500  0.47912000  1
  O  O31  1  0.00000000  0.82836000  0.95506000  1
  O  O32  1  0.50000000  0.82836000  0.84126000  1
  O  O33  1  0.00019600  0.84474300  0.72934800  1
  O  O34  1  0.50679600  0.83841600  0.61525900  1
  O  O35  1  0.50000000  0.82836000  0.93115000  1
  O  O36  1  0.00000000  0.82836000  0.81736000  1
  O  O37  1  0.49637900  0.83423200  0.70271300  1
  O  O38  1  0.99921400  0.83192300  0.58937100  1
  O  O39  1  0.69747000  0.32836000  0.00000000  1
  O  O40  1  0.19747000  0.32836000  0.88621000  1
  O  O41  1  0.69747000  0.32836000  0.77241000  1
  O  O42  1  0.19366200  0.32440700  0.66162900  1
  O  O43  1  0.68981500  0.33306500  0.56189900  1
  O  O44  1  0.30253000  0.32836000  0.00000000  1
  O  O45  1  0.80253000  0.32836000  0.88621000  1
  O  O46  1  0.30253000  0.32836000  0.77241000  1
  O  O47  1  0.80526000  0.32592000  0.66177200  1
  O  O48  1  0.27907800  0.31305900  0.56786500  1
  O  O49  1  0.69747000  0.67164000  0.00000000  1
  O  O50  1  0.19747000  0.67164000  0.88621000  1
  O  O51  1  0.69747000  0.67164000  0.77241000  1
  O  O52  1  0.19255400  0.66642000  0.66018500  1
  O  O53  1  0.69966400  0.66587400  0.54749400  1
  O  O54  1  0.30253000  0.67164000  0.00000000  1
  O  O55  1  0.80253000  0.67164000  0.88621000  1
  O  O56  1  0.30253000  0.67164000  0.77241000  1
  O  O57  1  0.80520400  0.66715500  0.66005800  1
  O  O58  1  0.31205300  0.65776100  0.55629200  1
  O  O59  1  0.00000000  0.17164000  0.95506000  1
  O  O60  1  0.50000000  0.17164000  0.84126000  1
  O  O61  1  0.00021600  0.15531300  0.72933600  1
  O  O62  1  0.50682500  0.14732200  0.61538000  1
  O  O63  1  0.50000000  0.17164000  0.93115000  1
  O  O64  1  0.00000000  0.17164000  0.81736000  1
  O  O65  1  0.49841100  0.16952000  0.70375100  1
  O  O66  1  0.97570200  0.15503900  0.58858100  1
  O  O67  1  0.00000000  0.50000000  0.95668000  1
  O  O68  1  0.50000000  0.50000000  0.84289000  1
  O  O69  1  0.00049200  0.50002000  0.72830400  1
  O  O70  1  0.50553500  0.50494500  0.61877400  1
  O  O71  1  0.50000000  0.50000000  0.92952000  1
  O  O72  1  0.00000000  0.50000000  0.81573000  1
  O  O73  1  0.49906400  0.49272600  0.70339600  1
  O  O74  1  0.99282900  0.49947400  0.58888200  1
  O  O75  1  0.69034000  0.00000000  0.00000000  1
  O  O76  1  0.19034000  0.00000000  0.88621000  1
  O  O77  1  0.69034000  0.00000000  0.77241000  1
  O  O78  1  0.18910100  0.99716300  0.65710500  1
  O  O79  1  0.79431000  0.98571100  0.52322200  1
  O  O80  1  0.30966000  0.00000000  0.00000000  1
  O  O81  1  0.80966000  0.00000000  0.88621000  1
  O  O82  1  0.30966000  0.00000000  0.77241000  1
  O  O83  1  0.81061800  0.99696800  0.65983800  1
  O  O84  1  0.20442000  0.00470200  0.52727700  1
