# generated using pymatgen
data_MgTiMnVZnCrFeCoCuNiSb20ClO54
_symmetry_space_group_name_H-M   'P 1'
_cell_length_a   6.68397500
_cell_length_b   9.60375600
_cell_length_c   29.16720500
_cell_angle_alpha   90.01548300
_cell_angle_beta   89.61563600
_cell_angle_gamma   89.84493200
_symmetry_Int_Tables_number   1
_chemical_formula_structural   MgTiMnVZnCrFeCoCuNiSb20ClO54
_chemical_formula_sum
'Mg1 Ti1 Mn1 V1 Zn1 Cr1 Fe1 Co1 Cu1 Ni1 Sb20 Cl1 O54'
_cell_volume   1872.23072215
_cell_formula_units_Z   1
loop_
 _symmetry_equiv_pos_site_id
 _symmetry_equiv_pos_as_xyz
  1  'x, y, z'
loop_
 _atom_site_type_symbol
 _atom_site_label
 _atom_site_symmetry_multiplicity
 _atom_site_fract_x
 _atom_site_fract_y
 _atom_site_fract_z
 _atom_site_occupancy
  Mg  Mg0  1  0.99055000  0.49820800  0.33887400  1
  Ti  Ti1  1  0.00000000  0.66768000  1.00000000  1
  Mn  Mn2  1  0.98505700  0.99277900  0.44114700  1
  V  V3  1  0.03098100  0.65429200  0.44092000  1
  Zn  Zn4  1  0.50000000  0.66768000  0.11379000  1
  Cr  Cr5  1  0.00000000  0.16768000  0.11379000  1
  Fe  Fe6  1  0.00000000  0.33232000  0.22759000  1
  Co  Co7  1  0.49675300  0.00265500  0.34136100  1
  Cu  Cu8  1  0.48579500  0.50302200  0.45124800  1
  Ni  Ni9  1  0.50000000  0.50000000  0.00000000  1
  Sb  Sb10  1  0.00000000  0.00000000  0.00000000  1
  Sb  Sb11  1  0.50000000  1.00000000  0.11379000  1
  Sb  Sb12  1  0.00000000  0.00000000  0.22759000  1
  Sb  Sb13  1  0.00000000  0.50000000  0.11379000  1
  Sb  Sb14  1  0.50000000  0.50000000  0.22759000  1
  Sb  Sb15  1  0.00000000  0.66768000  0.22759000  1
  Sb  Sb16  1  0.49714700  0.67644000  0.34125400  1
  Sb  Sb17  1  0.50000000  0.16768000  0.00000000  1
  Sb  Sb18  1  0.50000000  0.16768000  0.22759000  1
  Sb  Sb19  1  0.99434500  0.16803500  0.34040700  1
  Sb  Sb20  1  0.49151800  0.19974000  0.45825600  1
  Sb  Sb21  1  0.50000000  0.83232000  1.00000000  1
  Sb  Sb22  1  0.00000000  0.83232000  0.11379000  1
  Sb  Sb23  1  0.50000000  0.83232000  0.22759000  1
  Sb  Sb24  1  0.99293900  0.83497400  0.34252800  1
  Sb  Sb25  1  0.49739900  0.84381000  0.45635600  1
  Sb  Sb26  1  0.00000000  0.33232000  0.00000000  1
  Sb  Sb27  1  0.50000000  0.33232000  0.11379000  1
  Sb  Sb28  1  0.49180400  0.32617500  0.34890600  1
  Sb  Sb29  1  0.99867400  0.33596900  0.45431800  1
  Cl  Cl30  1  0.47378200  0.44672700  0.52464100  1
  O  O31  1  0.00000000  0.82836000  0.04494000  1
  O  O32  1  0.50000000  0.82836000  0.15874000  1
  O  O33  1  0.99980400  0.84474300  0.27065200  1
  O  O34  1  0.50612300  0.83300100  0.38601600  1
  O  O35  1  0.50000000  0.82836000  0.06885000  1
  O  O36  1  0.00000000  0.82836000  0.18264000  1
  O  O37  1  0.48921700  0.83662800  0.29625600  1
  O  O38  1  0.95437500  0.81470500  0.41147500  1
  O  O39  1  0.30253000  0.32836000  1.00000000  1
  O  O40  1  0.80253000  0.32836000  0.11379000  1
  O  O41  1  0.30253000  0.32836000  0.22759000  1
  O  O42  1  0.79893200  0.32638700  0.34017100  1
  O  O43  1  0.29386100  0.33719400  0.43104200  1
  O  O44  1  0.69747000  0.32836000  1.00000000  1
  O  O45  1  0.19747000  0.32836000  0.11379000  1
  O  O46  1  0.69747000  0.32836000  0.22759000  1
  O  O47  1  0.18816600  0.32703800  0.33843000  1
  O  O48  1  0.69135600  0.34768900  0.44080500  1
  O  O49  1  0.30253000  0.67164000  1.00000000  1
  O  O50  1  0.80253000  0.67164000  0.11379000  1
  O  O51  1  0.30253000  0.67164000  0.22759000  1
  O  O52  1  0.80071100  0.67741600  0.33458800  1
  O  O53  1  0.28234900  0.65683700  0.45447000  1
  O  O54  1  0.69747000  0.67164000  1.00000000  1
  O  O55  1  0.19747000  0.67164000  0.11379000  1
  O  O56  1  0.69747000  0.67164000  0.22759000  1
  O  O57  1  0.19119000  0.67767300  0.34222700  1
  O  O58  1  0.89816700  0.63514600  0.48743300  1
  O  O59  1  0.00000000  0.17164000  0.04494000  1
  O  O60  1  0.50000000  0.17164000  0.15874000  1
  O  O61  1  0.99978400  0.15531300  0.27066400  1
  O  O62  1  0.50722900  0.15274200  0.38718600  1
  O  O63  1  0.50000000  0.17164000  0.06885000  1
  O  O64  1  0.00000000  0.17164000  0.18264000  1
  O  O65  1  0.49527100  0.16728800  0.29720700  1
  O  O66  1  0.99342600  0.16660000  0.41018300  1
  O  O67  1  0.00000000  0.50000000  0.04332000  1
  O  O68  1  0.50000000  0.50000000  0.15711000  1
  O  O69  1  0.99950800  0.50002000  0.27169600  1
  O  O70  1  0.51287800  0.51866100  0.38435100  1
  O  O71  1  0.50000000  0.50000000  0.07048000  1
  O  O72  1  0.00000000  0.50000000  0.18427000  1
  O  O73  1  0.49328000  0.50496500  0.29863800  1
  O  O74  1  0.99273300  0.49998200  0.40934200  1
  O  O75  1  0.30966000  0.00000000  1.00000000  1
  O  O76  1  0.80966000  1.00000000  0.11379000  1
  O  O77  1  0.30966000  0.00000000  0.22759000  1
  O  O78  1  0.80216500  0.99917600  0.34165000  1
  O  O79  1  0.25930900  0.97064200  0.45457300  1
  O  O80  1  0.69034000  1.00000000  1.00000000  1
  O  O81  1  0.19034000  0.00000000  0.11379000  1
  O  O82  1  0.69034000  1.00000000  0.22759000  1
  O  O83  1  0.18799100  0.99815600  0.34419000  1
  O  O84  1  0.72028500  0.00723400  0.45601400  1
