# generated using pymatgen
data_MgTiMnVZnCrFeCoCuNiSb20ClO54
_symmetry_space_group_name_H-M   'P 1'
_cell_length_a   6.61740900
_cell_length_b   9.63996400
_cell_length_c   29.01451400
_cell_angle_alpha   89.78005400
_cell_angle_beta   89.88963300
_cell_angle_gamma   89.94805900
_symmetry_Int_Tables_number   1
_chemical_formula_structural   MgTiMnVZnCrFeCoCuNiSb20ClO54
_chemical_formula_sum
'Mg1 Ti1 Mn1 V1 Zn1 Cr1 Fe1 Co1 Cu1 Ni1 Sb20 Cl1 O54'
_cell_volume   1850.86400299
_cell_formula_units_Z   1
loop_
 _symmetry_equiv_pos_site_id
 _symmetry_equiv_pos_as_xyz
  1  'x, y, z'
loop_
 _atom_site_type_symbol
 _atom_site_label
 _atom_site_symmetry_multiplicity
 _atom_site_fract_x
 _atom_site_fract_y
 _atom_site_fract_z
 _atom_site_occupancy
  Mg  Mg0  1  0.50000000  0.83232000  0.00000000  1
  Ti  Ti1  1  0.00000000  0.00000000  0.00000000  1
  Mn  Mn2  1  0.49957300  0.68440000  0.34440400  1
  V  V3  1  0.49958900  0.35540100  0.33714000  1
  Zn  Zn4  1  0.00000000  0.66768000  0.22759000  1
  Cr  Cr5  1  0.99735800  0.17645700  0.33879900  1
  Fe  Fe6  1  0.50000000  0.00000000  0.11379000  1
  Co  Co7  1  0.00000000  0.33232000  0.00000000  1
  Cu  Cu8  1  0.49966500  0.50450500  0.44509300  1
  Ni  Ni9  1  0.50000000  0.50000000  0.22759000  1
  Sb  Sb10  1  0.00000000  0.00000000  0.22759000  1
  Sb  Sb11  1  0.49876900  0.01065700  0.34668100  1
  Sb  Sb12  1  0.00059700  0.00875200  0.42991900  1
  Sb  Sb13  1  0.50000000  0.50000000  0.00000000  1
  Sb  Sb14  1  0.00000000  0.50000000  0.11379000  1
  Sb  Sb15  1  0.00024300  0.49034100  0.34197900  1
  Sb  Sb16  1  0.00000000  0.66768000  0.00000000  1
  Sb  Sb17  1  0.50000000  0.66768000  0.11379000  1
  Sb  Sb18  1  0.00658700  0.67260700  0.46533300  1
  Sb  Sb19  1  0.50000000  0.16768000  0.00000000  1
  Sb  Sb20  1  0.00000000  0.16768000  0.11379000  1
  Sb  Sb21  1  0.50000000  0.16768000  0.22759000  1
  Sb  Sb22  1  0.49307100  0.18792200  0.46039300  1
  Sb  Sb23  1  0.00000000  0.83232000  0.11379000  1
  Sb  Sb24  1  0.50000000  0.83232000  0.22759000  1
  Sb  Sb25  1  0.00165700  0.82818800  0.33792800  1
  Sb  Sb26  1  0.50673500  0.81380800  0.46273400  1
  Sb  Sb27  1  0.50000000  0.33232000  0.11379000  1
  Sb  Sb28  1  0.00000000  0.33232000  0.22759000  1
  Sb  Sb29  1  0.98562900  0.32772200  0.46543400  1
  Cl  Cl30  1  0.52965500  0.53164700  0.52406100  1
  O  O31  1  0.00000000  0.82836000  0.04494000  1
  O  O32  1  0.50000000  0.82836000  0.15874000  1
  O  O33  1  0.99980400  0.84474300  0.27065200  1
  O  O34  1  0.49542300  0.85590400  0.39071200  1
  O  O35  1  0.50000000  0.82836000  0.06885000  1
  O  O36  1  0.00000000  0.82836000  0.18264000  1
  O  O37  1  0.49966500  0.85230000  0.30050000  1
  O  O38  1  0.02428400  0.81798500  0.40698400  1
  O  O39  1  0.30253000  0.32836000  0.00000000  1
  O  O40  1  0.80253000  0.32836000  0.11379000  1
  O  O41  1  0.30253000  0.32836000  0.22759000  1
  O  O42  1  0.78800400  0.31775400  0.33602600  1
  O  O43  1  0.28877200  0.33475900  0.45021300  1
  O  O44  1  0.69747000  0.32836000  0.00000000  1
  O  O45  1  0.19747000  0.32836000  0.11379000  1
  O  O46  1  0.69747000  0.32836000  0.22759000  1
  O  O47  1  0.20908400  0.31629100  0.33670800  1
  O  O48  1  0.68326200  0.34614400  0.44444800  1
  O  O49  1  0.30253000  0.67164000  0.00000000  1
  O  O50  1  0.80253000  0.67164000  0.11379000  1
  O  O51  1  0.30253000  0.67164000  0.22759000  1
  O  O52  1  0.79223500  0.68073800  0.33863300  1
  O  O53  1  0.31163300  0.66218400  0.44216200  1
  O  O54  1  0.69747000  0.67164000  0.00000000  1
  O  O55  1  0.19747000  0.67164000  0.11379000  1
  O  O56  1  0.69747000  0.67164000  0.22759000  1
  O  O57  1  0.20896400  0.67836600  0.33653200  1
  O  O58  1  0.71446100  0.67852800  0.44157700  1
  O  O59  1  0.00000000  0.17164000  0.04494000  1
  O  O60  1  0.50000000  0.17164000  0.15874000  1
  O  O61  1  0.99978400  0.15531300  0.27066400  1
  O  O62  1  0.49777500  0.17104100  0.38767600  1
  O  O63  1  0.50000000  0.17164000  0.06885000  1
  O  O64  1  0.00000000  0.17164000  0.18264000  1
  O  O65  1  0.50081800  0.16057000  0.29752200  1
  O  O66  1  0.98542200  0.19688300  0.40553200  1
  O  O67  1  0.00000000  0.50000000  0.04332000  1
  O  O68  1  0.50000000  0.50000000  0.15711000  1
  O  O69  1  0.99950800  0.50002000  0.27169600  1
  O  O70  1  0.49820200  0.50210100  0.37493000  1
  O  O71  1  0.50000000  0.50000000  0.07048000  1
  O  O72  1  0.00000000  0.50000000  0.18427000  1
  O  O73  1  0.49843600  0.46097500  0.29182900  1
  O  O74  1  0.99963400  0.50032800  0.42904600  1
  O  O75  1  0.30966000  0.00000000  0.00000000  1
  O  O76  1  0.80966000  0.00000000  0.11379000  1
  O  O77  1  0.30966000  0.00000000  0.22759000  1
  O  O78  1  0.81612300  0.00408000  0.34860800  1
  O  O79  1  0.24606000  0.01324500  0.46293300  1
  O  O80  1  0.69034000  0.00000000  0.00000000  1
  O  O81  1  0.19034000  0.00000000  0.11379000  1
  O  O82  1  0.69034000  0.00000000  0.22759000  1
  O  O83  1  0.18243400  0.00709300  0.34786700  1
  O  O84  1  0.75681400  0.99115900  0.46309700  1
