# generated using pymatgen
data_MgTiMnVZnCrFeCoCuNiSb20ClO54
_symmetry_space_group_name_H-M   'P 1'
_cell_length_a   6.64763900
_cell_length_b   9.40260900
_cell_length_c   29.04683000
_cell_angle_alpha   89.92438900
_cell_angle_beta   89.98000700
_cell_angle_gamma   89.80231600
_symmetry_Int_Tables_number   1
_chemical_formula_structural   MgTiMnVZnCrFeCoCuNiSb20ClO54
_chemical_formula_sum
'Mg1 Ti1 Mn1 V1 Zn1 Cr1 Fe1 Co1 Cu1 Ni1 Sb20 Cl1 O54'
_cell_volume   1815.56397960
_cell_formula_units_Z   1
loop_
 _symmetry_equiv_pos_site_id
 _symmetry_equiv_pos_as_xyz
  1  'x, y, z'
loop_
 _atom_site_type_symbol
 _atom_site_label
 _atom_site_symmetry_multiplicity
 _atom_site_fract_x
 _atom_site_fract_y
 _atom_site_fract_z
 _atom_site_occupancy
  Mg  Mg0  1  0.00000000  0.16768000  0.11379000  1
  Ti  Ti1  1  0.00000000  0.33232000  0.22759000  1
  Mn  Mn2  1  0.50000000  0.66768000  0.11379000  1
  V  V3  1  0.50000000  0.50000000  0.22759000  1
  Zn  Zn4  1  0.50000000  0.50000000  0.00000000  1
  Cr  Cr5  1  0.50044800  0.33714400  0.33575200  1
  Fe  Fe6  1  0.99974700  0.83327000  0.34365400  1
  Co  Co7  1  0.50000000  0.83232000  0.22759000  1
  Cu  Cu8  1  0.48642800  0.49119600  0.44948000  1
  Ni  Ni9  1  0.00000000  0.50000000  0.11379000  1
  Sb  Sb10  1  0.00000000  0.00000000  0.00000000  1
  Sb  Sb11  1  0.50000000  1.00000000  0.11379000  1
  Sb  Sb12  1  0.00000000  0.00000000  0.22759000  1
  Sb  Sb13  1  0.49986600  0.99455600  0.33887400  1
  Sb  Sb14  1  0.00033500  0.00596300  0.46139800  1
  Sb  Sb15  1  0.99945900  0.49971600  0.34122100  1
  Sb  Sb16  1  0.00000000  0.33232000  0.00000000  1
  Sb  Sb17  1  0.50000000  0.33232000  0.11379000  1
  Sb  Sb18  1  0.99148400  0.33758800  0.46496900  1
  Sb  Sb19  1  0.50000000  0.83232000  0.00000000  1
  Sb  Sb20  1  0.00000000  0.83232000  0.11379000  1
  Sb  Sb21  1  0.50071400  0.79546700  0.46555300  1
  Sb  Sb22  1  0.50000000  0.16768000  0.00000000  1
  Sb  Sb23  1  0.50000000  0.16768000  0.22759000  1
  Sb  Sb24  1  0.99959000  0.16416800  0.34154300  1
  Sb  Sb25  1  0.49583700  0.16656100  0.44560200  1
  Sb  Sb26  1  0.00000000  0.66768000  0.00000000  1
  Sb  Sb27  1  0.00000000  0.66768000  0.22759000  1
  Sb  Sb28  1  0.49919800  0.65932600  0.34292500  1
  Sb  Sb29  1  0.00144000  0.67126400  0.45700600  1
  Cl  Cl30  1  0.49130600  0.56104000  0.52665800  1
  O  O31  1  0.00000000  0.17164000  0.04494000  1
  O  O32  1  0.50000000  0.17164000  0.15874000  1
  O  O33  1  0.00019600  0.15525700  0.27065200  1
  O  O34  1  0.50166500  0.17335900  0.37877500  1
  O  O35  1  0.50000000  0.17164000  0.06885000  1
  O  O36  1  0.00000000  0.17164000  0.18264000  1
  O  O37  1  0.49951300  0.16484100  0.29601800  1
  O  O38  1  0.99113400  0.17295400  0.41255600  1
  O  O39  1  0.69747000  0.67164000  1.00000000  1
  O  O40  1  0.19747000  0.67164000  0.11379000  1
  O  O41  1  0.69747000  0.67164000  0.22759000  1
  O  O42  1  0.19131200  0.66408200  0.33993600  1
  O  O43  1  0.70776400  0.66552500  0.43841700  1
  O  O44  1  0.30253000  0.67164000  1.00000000  1
  O  O45  1  0.80253000  0.67164000  0.11379000  1
  O  O46  1  0.30253000  0.67164000  0.22759000  1
  O  O47  1  0.80765300  0.66498800  0.33989800  1
  O  O48  1  0.30392500  0.65613700  0.43684800  1
  O  O49  1  0.69747000  0.32836000  1.00000000  1
  O  O50  1  0.19747000  0.32836000  0.11379000  1
  O  O51  1  0.69747000  0.32836000  0.22759000  1
  O  O52  1  0.19645500  0.33092100  0.33741800  1
  O  O53  1  0.67777700  0.32483900  0.45749300  1
  O  O54  1  0.30253000  0.32836000  1.00000000  1
  O  O55  1  0.80253000  0.32836000  0.11379000  1
  O  O56  1  0.30253000  0.32836000  0.22759000  1
  O  O57  1  0.80365000  0.33166300  0.33669300  1
  O  O58  1  0.29705600  0.31158300  0.46021100  1
  O  O59  1  0.00000000  0.82836000  0.04494000  1
  O  O60  1  0.50000000  0.82836000  0.15874000  1
  O  O61  1  0.00021600  0.84468700  0.27066400  1
  O  O62  1  0.50073000  0.83537300  0.38523500  1
  O  O63  1  0.50000000  0.82836000  0.06885000  1
  O  O64  1  0.00000000  0.82836000  0.18264000  1
  O  O65  1  0.49877600  0.82744700  0.29625500  1
  O  O66  1  0.00318600  0.84767700  0.41252300  1
  O  O67  1  0.00000000  0.50000000  0.04332000  1
  O  O68  1  0.50000000  0.50000000  0.15711000  1
  O  O69  1  0.00049200  0.49998000  0.27169600  1
  O  O70  1  0.50012400  0.48191500  0.38028600  1
  O  O71  1  0.50000000  0.50000000  0.07048000  1
  O  O72  1  0.00000000  0.50000000  0.18427000  1
  O  O73  1  0.50021800  0.49544700  0.29305400  1
  O  O74  1  0.99774900  0.49014500  0.41153900  1
  O  O75  1  0.69034000  0.00000000  1.00000000  1
  O  O76  1  0.19034000  1.00000000  0.11379000  1
  O  O77  1  0.69034000  0.00000000  0.22759000  1
  O  O78  1  0.19556200  0.00117900  0.34145200  1
  O  O79  1  0.68658500  0.01087400  0.45404300  1
  O  O80  1  0.30966000  1.00000000  1.00000000  1
  O  O81  1  0.80966000  0.00000000  0.11379000  1
  O  O82  1  0.30966000  1.00000000  0.22759000  1
  O  O83  1  0.80431300  0.00082900  0.34126000  1
  O  O84  1  0.30902000  0.00822000  0.45025500  1
