# generated using pymatgen
data_MgTiMnVZnCrFeCoCuNiSb20ClO54
_symmetry_space_group_name_H-M   'P 1'
_cell_length_a   6.79000200
_cell_length_b   9.57856000
_cell_length_c   29.29847100
_cell_angle_alpha   89.75476300
_cell_angle_beta   89.90453500
_cell_angle_gamma   89.97179600
_symmetry_Int_Tables_number   1
_chemical_formula_structural   MgTiMnVZnCrFeCoCuNiSb20ClO54
_chemical_formula_sum
'Mg1 Ti1 Mn1 V1 Zn1 Cr1 Fe1 Co1 Cu1 Ni1 Sb20 Cl1 O54'
_cell_volume   1905.50656998
_cell_formula_units_Z   1
loop_
 _symmetry_equiv_pos_site_id
 _symmetry_equiv_pos_as_xyz
  1  'x, y, z'
loop_
 _atom_site_type_symbol
 _atom_site_label
 _atom_site_symmetry_multiplicity
 _atom_site_fract_x
 _atom_site_fract_y
 _atom_site_fract_z
 _atom_site_occupancy
  Mg  Mg0  1  0.50151600  0.66161300  0.65950600  1
  Ti  Ti1  1  0.00142500  0.81871300  0.66362300  1
  Mn  Mn2  1  0.00000000  0.66768000  1.00000000  1
  V  V3  1  0.00000000  0.33232000  0.77241000  1
  Zn  Zn4  1  0.00000000  1.00000000  0.77241000  1
  Cr  Cr5  1  0.00016900  0.33035600  0.55828500  1
  Fe  Fe6  1  0.50083100  0.34898100  0.65988800  1
  Co  Co7  1  0.00213000  0.67944000  0.56710100  1
  Cu  Cu8  1  0.49777500  0.52316300  0.55617000  1
  Ni  Ni9  1  0.50000000  0.33232000  0.88621000  1
  Sb  Sb10  1  0.00000000  0.00000000  0.00000000  1
  Sb  Sb11  1  0.50000000  1.00000000  0.88621000  1
  Sb  Sb12  1  0.50214200  0.00131600  0.66071100  1
  Sb  Sb13  1  0.00316600  0.99588600  0.54573000  1
  Sb  Sb14  1  0.50000000  0.50000000  1.00000000  1
  Sb  Sb15  1  0.00000000  0.50000000  0.88621000  1
  Sb  Sb16  1  0.50000000  0.50000000  0.77241000  1
  Sb  Sb17  1  0.00140700  0.50026800  0.65952200  1
  Sb  Sb18  1  0.00000000  0.33232000  1.00000000  1
  Sb  Sb19  1  0.50000000  0.83232000  1.00000000  1
  Sb  Sb20  1  0.00000000  0.83232000  0.88621000  1
  Sb  Sb21  1  0.50000000  0.83232000  0.77241000  1
  Sb  Sb22  1  0.50331900  0.82121700  0.54939300  1
  Sb  Sb23  1  0.50000000  0.16768000  1.00000000  1
  Sb  Sb24  1  0.00000000  0.16768000  0.88621000  1
  Sb  Sb25  1  0.50000000  0.16768000  0.77241000  1
  Sb  Sb26  1  0.00180200  0.16400200  0.66373700  1
  Sb  Sb27  1  0.50101900  0.17535100  0.54970500  1
  Sb  Sb28  1  0.50000000  0.66768000  0.88621000  1
  Sb  Sb29  1  0.00000000  0.66768000  0.77241000  1
  Cl  Cl30  1  0.50251300  0.50937700  0.48379600  1
  O  O31  1  0.00000000  0.17164000  0.95506000  1
  O  O32  1  0.50000000  0.17164000  0.84126000  1
  O  O33  1  0.99980400  0.15525700  0.72934800  1
  O  O34  1  0.50215600  0.17222700  0.61911900  1
  O  O35  1  0.50000000  0.17164000  0.93115000  1
  O  O36  1  0.00000000  0.17164000  0.81736000  1
  O  O37  1  0.50055000  0.16715100  0.70410600  1
  O  O38  1  0.00671000  0.16750300  0.59256800  1
  O  O39  1  0.30253000  0.67164000  1.00000000  1
  O  O40  1  0.80253000  0.67164000  0.88621000  1
  O  O41  1  0.30253000  0.67164000  0.77241000  1
  O  O42  1  0.81560800  0.66900900  0.66188000  1
  O  O43  1  0.26178700  0.67640600  0.55778500  1
  O  O44  1  0.69747000  0.67164000  1.00000000  1
  O  O45  1  0.19747000  0.67164000  0.88621000  1
  O  O46  1  0.69747000  0.67164000  0.77241000  1
  O  O47  1  0.18719400  0.66803300  0.66189500  1
  O  O48  1  0.74435900  0.67462200  0.55754200  1
  O  O49  1  0.30253000  0.32836000  1.00000000  1
  O  O50  1  0.80253000  0.32836000  0.88621000  1
  O  O51  1  0.30253000  0.32836000  0.77241000  1
  O  O52  1  0.81102400  0.33259700  0.65998000  1
  O  O53  1  0.19902700  0.31466000  0.52837000  1
  O  O54  1  0.69747000  0.32836000  1.00000000  1
  O  O55  1  0.19747000  0.32836000  0.88621000  1
  O  O56  1  0.69747000  0.32836000  0.77241000  1
  O  O57  1  0.19149000  0.33289800  0.66068400  1
  O  O58  1  0.79315400  0.31134300  0.53097000  1
  O  O59  1  0.00000000  0.82836000  0.95506000  1
  O  O60  1  0.50000000  0.82836000  0.84126000  1
  O  O61  1  0.99978400  0.84468700  0.72933600  1
  O  O62  1  0.50278800  0.83870100  0.61814400  1
  O  O63  1  0.50000000  0.82836000  0.93115000  1
  O  O64  1  0.00000000  0.82836000  0.81736000  1
  O  O65  1  0.50126300  0.83515400  0.70428300  1
  O  O66  1  0.00207400  0.85335100  0.59582500  1
  O  O67  1  0.00000000  0.50000000  0.95668000  1
  O  O68  1  0.50000000  0.50000000  0.84289000  1
  O  O69  1  0.99950800  0.49998000  0.72830400  1
  O  O70  1  0.50024100  0.48650600  0.61744200  1
  O  O71  1  0.50000000  0.50000000  0.92952000  1
  O  O72  1  0.00000000  0.50000000  0.81573000  1
  O  O73  1  0.50174300  0.49689500  0.70585300  1
  O  O74  1  0.00277600  0.48969800  0.59009400  1
  O  O75  1  0.30966000  1.00000000  1.00000000  1
  O  O76  1  0.80966000  1.00000000  0.88621000  1
  O  O77  1  0.30966000  1.00000000  0.77241000  1
  O  O78  1  0.80590700  0.99938800  0.66084600  1
  O  O79  1  0.31379200  0.00778200  0.55201600  1
  O  O80  1  0.69034000  1.00000000  0.00000000  1
  O  O81  1  0.19034000  1.00000000  0.88621000  1
  O  O82  1  0.69034000  1.00000000  0.77241000  1
  O  O83  1  0.19859700  0.99984800  0.66084800  1
  O  O84  1  0.68987900  0.00997200  0.55171700  1
