# generated using pymatgen
data_MgTiMnVZnCrFeCoCuNiSb20ClO54
_symmetry_space_group_name_H-M   'P 1'
_cell_length_a   6.70020300
_cell_length_b   9.38971500
_cell_length_c   29.37769200
_cell_angle_alpha   89.52479000
_cell_angle_beta   89.89914500
_cell_angle_gamma   89.95878600
_symmetry_Int_Tables_number   1
_chemical_formula_structural   MgTiMnVZnCrFeCoCuNiSb20ClO54
_chemical_formula_sum
'Mg1 Ti1 Mn1 V1 Zn1 Cr1 Fe1 Co1 Cu1 Ni1 Sb20 Cl1 O54'
_cell_volume   1848.17174515
_cell_formula_units_Z   1
loop_
 _symmetry_equiv_pos_site_id
 _symmetry_equiv_pos_as_xyz
  1  'x, y, z'
loop_
 _atom_site_type_symbol
 _atom_site_label
 _atom_site_symmetry_multiplicity
 _atom_site_fract_x
 _atom_site_fract_y
 _atom_site_fract_z
 _atom_site_occupancy
  Mg  Mg0  1  0.00000000  0.33232000  0.22759000  1
  Ti  Ti1  1  0.50512100  0.67302400  0.34325900  1
  Mn  Mn2  1  0.00000000  0.16768000  0.11379000  1
  V  V3  1  0.00000000  0.00000000  0.00000000  1
  Zn  Zn4  1  0.49060600  0.16838100  0.44559000  1
  Cr  Cr5  1  0.50000000  0.16768000  0.22759000  1
  Fe  Fe6  1  0.50000000  0.83232000  1.00000000  1
  Co  Co7  1  0.50000000  1.00000000  0.11379000  1
  Cu  Cu8  1  0.50641400  0.48817200  0.45473800  1
  Ni  Ni9  1  0.50027800  0.00210000  0.33553300  1
  Sb  Sb10  1  0.00000000  1.00000000  0.22759000  1
  Sb  Sb11  1  0.99929700  0.99942800  0.46287100  1
  Sb  Sb12  1  0.50000000  0.50000000  1.00000000  1
  Sb  Sb13  1  0.00000000  0.50000000  0.11379000  1
  Sb  Sb14  1  0.50000000  0.50000000  0.22759000  1
  Sb  Sb15  1  0.00183500  0.50381600  0.33943200  1
  Sb  Sb16  1  0.00000000  0.66768000  1.00000000  1
  Sb  Sb17  1  0.50000000  0.66768000  0.11379000  1
  Sb  Sb18  1  0.00000000  0.66768000  0.22759000  1
  Sb  Sb19  1  0.97564500  0.66814600  0.46855600  1
  Sb  Sb20  1  0.50000000  0.16768000  1.00000000  1
  Sb  Sb21  1  0.99902500  0.15813100  0.34021800  1
  Sb  Sb22  1  0.00000000  0.83232000  0.11379000  1
  Sb  Sb23  1  0.50000000  0.83232000  0.22759000  1
  Sb  Sb24  1  0.00456300  0.83762800  0.34507900  1
  Sb  Sb25  1  0.50015400  0.82165000  0.44652400  1
  Sb  Sb26  1  0.00000000  0.33232000  1.00000000  1
  Sb  Sb27  1  0.50000000  0.33232000  0.11379000  1
  Sb  Sb28  1  0.50103900  0.32474000  0.33754500  1
  Sb  Sb29  1  0.99544200  0.34337700  0.45609500  1
  Cl  Cl30  1  0.65176900  0.57197100  0.52766300  1
  O  O31  1  0.00000000  0.82836000  0.04494000  1
  O  O32  1  0.50000000  0.82836000  0.15874000  1
  O  O33  1  0.99980400  0.84474300  0.27065200  1
  O  O34  1  0.48826500  0.83165000  0.37965200  1
  O  O35  1  0.50000000  0.82836000  0.06885000  1
  O  O36  1  0.00000000  0.82836000  0.18264000  1
  O  O37  1  0.50255100  0.81866700  0.29442800  1
  O  O38  1  0.01327900  0.83706900  0.41215900  1
  O  O39  1  0.30253000  0.32836000  1.00000000  1
  O  O40  1  0.80253000  0.32836000  0.11379000  1
  O  O41  1  0.30253000  0.32836000  0.22759000  1
  O  O42  1  0.80949500  0.33262800  0.33869700  1
  O  O43  1  0.30062100  0.33402000  0.45425400  1
  O  O44  1  0.69747000  0.32836000  1.00000000  1
  O  O45  1  0.19747000  0.32836000  0.11379000  1
  O  O46  1  0.69747000  0.32836000  0.22759000  1
  O  O47  1  0.19117000  0.33181600  0.33667000  1
  O  O48  1  0.68850100  0.32825800  0.45017200  1
  O  O49  1  0.30253000  0.67164000  1.00000000  1
  O  O50  1  0.80253000  0.67164000  0.11379000  1
  O  O51  1  0.30253000  0.67164000  0.22759000  1
  O  O52  1  0.80706900  0.67428600  0.33637200  1
  O  O53  1  0.30828900  0.66275100  0.45549400  1
  O  O54  1  0.69747000  0.67164000  1.00000000  1
  O  O55  1  0.19747000  0.67164000  0.11379000  1
  O  O56  1  0.69747000  0.67164000  0.22759000  1
  O  O57  1  0.19891500  0.67239500  0.33728200  1
  O  O58  1  0.70369600  0.67256600  0.43470800  1
  O  O59  1  0.00000000  0.17164000  0.04494000  1
  O  O60  1  0.50000000  0.17164000  0.15874000  1
  O  O61  1  0.99978400  0.15531300  0.27066400  1
  O  O62  1  0.49938500  0.16192800  0.37912500  1
  O  O63  1  0.50000000  0.17164000  0.06885000  1
  O  O64  1  0.00000000  0.17164000  0.18264000  1
  O  O65  1  0.49993000  0.16527800  0.29280800  1
  O  O66  1  0.99794700  0.16564400  0.40827400  1
  O  O67  1  0.00000000  0.50000000  0.04332000  1
  O  O68  1  0.50000000  0.50000000  0.15711000  1
  O  O69  1  0.99950800  0.50002000  0.27169600  1
  O  O70  1  0.49556200  0.50049800  0.37700100  1
  O  O71  1  0.50000000  0.50000000  0.07048000  1
  O  O72  1  0.00000000  0.50000000  0.18427000  1
  O  O73  1  0.50033900  0.50555600  0.29540900  1
  O  O74  1  0.00345800  0.50899000  0.40642600  1
  O  O75  1  0.30966000  0.00000000  0.00000000  1
  O  O76  1  0.80966000  1.00000000  0.11379000  1
  O  O77  1  0.30966000  1.00000000  0.22759000  1
  O  O78  1  0.80235200  0.99609000  0.34032500  1
  O  O79  1  0.31310400  0.98751400  0.45714000  1
  O  O80  1  0.69034000  0.00000000  0.00000000  1
  O  O81  1  0.19034000  1.00000000  0.11379000  1
  O  O82  1  0.69034000  1.00000000  0.22759000  1
  O  O83  1  0.19892900  0.99711000  0.33751400  1
  O  O84  1  0.68633900  0.98127400  0.45773500  1
