# generated using pymatgen
data_MgTiMnVZnCrFeCoCuNiSb20ClO54
_symmetry_space_group_name_H-M   'P 1'
_cell_length_a   6.62953400
_cell_length_b   9.58952000
_cell_length_c   28.62551100
_cell_angle_alpha   89.94534200
_cell_angle_beta   89.98807700
_cell_angle_gamma   89.97516200
_symmetry_Int_Tables_number   1
_chemical_formula_structural   MgTiMnVZnCrFeCoCuNiSb20ClO54
_chemical_formula_sum
'Mg1 Ti1 Mn1 V1 Zn1 Cr1 Fe1 Co1 Cu1 Ni1 Sb20 Cl1 O54'
_cell_volume   1819.83859732
_cell_formula_units_Z   1
loop_
 _symmetry_equiv_pos_site_id
 _symmetry_equiv_pos_as_xyz
  1  'x, y, z'
loop_
 _atom_site_type_symbol
 _atom_site_label
 _atom_site_symmetry_multiplicity
 _atom_site_fract_x
 _atom_site_fract_y
 _atom_site_fract_z
 _atom_site_occupancy
  Mg  Mg0  1  0.00144200  0.83062100  0.33955100  1
  Ti  Ti1  1  0.50417200  0.17411600  0.45298600  1
  Mn  Mn2  1  0.00121000  0.17305100  0.33637000  1
  V  V3  1  0.50000000  0.16768000  0.22759000  1
  Zn  Zn4  1  1.00000000  0.66768000  0.00000000  1
  Cr  Cr5  1  0.50000000  0.00000000  0.11379000  1
  Fe  Fe6  1  0.00000000  0.00000000  0.22759000  1
  Co  Co7  1  0.50000000  0.66768000  0.11379000  1
  Cu  Cu8  1  0.50289700  0.48531700  0.46121100  1
  Ni  Ni9  1  1.00000000  0.50000000  0.11379000  1
  Sb  Sb10  1  0.00000000  0.00000000  0.00000000  1
  Sb  Sb11  1  0.50021100  0.99411700  0.34373700  1
  Sb  Sb12  1  0.00126900  0.01858800  0.42192500  1
  Sb  Sb13  1  0.50000000  0.50000000  0.00000000  1
  Sb  Sb14  1  0.50000000  0.50000000  0.22759000  1
  Sb  Sb15  1  0.99917100  0.50128400  0.35158600  1
  Sb  Sb16  1  1.00000000  0.66768000  0.22759000  1
  Sb  Sb17  1  0.50033300  0.66237300  0.34984900  1
  Sb  Sb18  1  0.99412100  0.67533700  0.47058500  1
  Sb  Sb19  1  0.50000000  0.16768000  0.00000000  1
  Sb  Sb20  1  0.00000000  0.16768000  0.11379000  1
  Sb  Sb21  1  0.50000000  0.83232000  0.00000000  1
  Sb  Sb22  1  1.00000000  0.83232000  0.11379000  1
  Sb  Sb23  1  0.50000000  0.83232000  0.22759000  1
  Sb  Sb24  1  0.50144300  0.79344500  0.47344900  1
  Sb  Sb25  1  0.00000000  0.33232000  0.00000000  1
  Sb  Sb26  1  0.50000000  0.33232000  0.11379000  1
  Sb  Sb27  1  0.00000000  0.33232000  0.22759000  1
  Sb  Sb28  1  0.49998200  0.32825600  0.33900100  1
  Sb  Sb29  1  0.00525300  0.31590200  0.47141300  1
  Cl  Cl30  1  0.53591400  0.64014600  0.54551600  1
  O  O31  1  1.00000000  0.82836000  0.04494000  1
  O  O32  1  0.50000000  0.82836000  0.15874000  1
  O  O33  1  0.99980400  0.84474300  0.27065200  1
  O  O34  1  0.49483700  0.83082800  0.39103600  1
  O  O35  1  0.50000000  0.82836000  0.06885000  1
  O  O36  1  0.00000000  0.82836000  0.18264000  1
  O  O37  1  0.49880700  0.81113000  0.29780500  1
  O  O38  1  0.00080800  0.81610000  0.41586500  1
  O  O39  1  0.30253000  0.32836000  0.00000000  1
  O  O40  1  0.80253000  0.32836000  0.11379000  1
  O  O41  1  0.30253000  0.32836000  0.22759000  1
  O  O42  1  0.80134100  0.31516200  0.33275500  1
  O  O43  1  0.32484600  0.32365100  0.46576300  1
  O  O44  1  0.69747000  0.32836000  0.00000000  1
  O  O45  1  0.19747000  0.32836000  0.11379000  1
  O  O46  1  0.69747000  0.32836000  0.22759000  1
  O  O47  1  0.19848800  0.31634400  0.33241700  1
  O  O48  1  0.68253400  0.32269200  0.46568500  1
  O  O49  1  0.30253000  0.67164000  0.00000000  1
  O  O50  1  0.80253000  0.67164000  0.11379000  1
  O  O51  1  0.30253000  0.67164000  0.22759000  1
  O  O52  1  0.79637700  0.66739300  0.34157700  1
  O  O53  1  0.30373700  0.64836300  0.45337100  1
  O  O54  1  0.69747000  0.67164000  0.00000000  1
  O  O55  1  0.19747000  0.67164000  0.11379000  1
  O  O56  1  0.69747000  0.67164000  0.22759000  1
  O  O57  1  0.20332600  0.66571100  0.34209200  1
  O  O58  1  0.69123600  0.64965700  0.44748000  1
  O  O59  1  0.00000000  0.17164000  0.04494000  1
  O  O60  1  0.50000000  0.17164000  0.15874000  1
  O  O61  1  0.99978400  0.15531300  0.27066400  1
  O  O62  1  0.50067300  0.18183300  0.38818600  1
  O  O63  1  0.50000000  0.17164000  0.06885000  1
  O  O64  1  0.00000000  0.17164000  0.18264000  1
  O  O65  1  0.49938700  0.17896000  0.29020600  1
  O  O66  1  0.00255700  0.22061700  0.40713100  1
  O  O67  1  1.00000000  0.50000000  0.04332000  1
  O  O68  1  0.50000000  0.50000000  0.15711000  1
  O  O69  1  0.99950800  0.50002000  0.27169600  1
  O  O70  1  0.49981100  0.48167400  0.38493100  1
  O  O71  1  0.50000000  0.50000000  0.07048000  1
  O  O72  1  1.00000000  0.50000000  0.18427000  1
  O  O73  1  0.50113100  0.50193600  0.29758300  1
  O  O74  1  0.00034800  0.49391400  0.43558500  1
  O  O75  1  0.30966000  0.00000000  0.00000000  1
  O  O76  1  0.80966000  0.00000000  0.11379000  1
  O  O77  1  0.30966000  0.00000000  0.22759000  1
  O  O78  1  0.82622100  0.01722000  0.35706000  1
  O  O79  1  0.25847100  0.04531200  0.45758200  1
  O  O80  1  0.69034000  0.00000000  0.00000000  1
  O  O81  1  0.19034000  0.00000000  0.11379000  1
  O  O82  1  0.69034000  0.00000000  0.22759000  1
  O  O83  1  0.17621400  0.01696600  0.35626500  1
  O  O84  1  0.74492200  0.04345800  0.45784700  1
