# generated using pymatgen
data_MgTiMnVZnCrFeCoCuNiSb20ClO54
_symmetry_space_group_name_H-M   'P 1'
_cell_length_a   6.77740100
_cell_length_b   9.63585700
_cell_length_c   28.66774700
_cell_angle_alpha   89.91875200
_cell_angle_beta   89.93711500
_cell_angle_gamma   89.88279400
_symmetry_Int_Tables_number   1
_chemical_formula_structural   MgTiMnVZnCrFeCoCuNiSb20ClO54
_chemical_formula_sum
'Mg1 Ti1 Mn1 V1 Zn1 Cr1 Fe1 Co1 Cu1 Ni1 Sb20 Cl1 O54'
_cell_volume   1872.17088136
_cell_formula_units_Z   1
loop_
 _symmetry_equiv_pos_site_id
 _symmetry_equiv_pos_as_xyz
  1  'x, y, z'
loop_
 _atom_site_type_symbol
 _atom_site_label
 _atom_site_symmetry_multiplicity
 _atom_site_fract_x
 _atom_site_fract_y
 _atom_site_fract_z
 _atom_site_occupancy
  Mg  Mg0  1  0.50000000  0.66768000  0.88621000  1
  Ti  Ti1  1  0.50000000  0.00000000  0.88621000  1
  Mn  Mn2  1  0.49608800  0.66540800  0.65516400  1
  V  V3  1  0.50633200  0.19073600  0.54563300  1
  Zn  Zn4  1  1.00000000  0.66768000  0.77241000  1
  Cr  Cr5  1  0.99956900  0.66799000  0.55381400  1
  Fe  Fe6  1  0.01185500  0.32573200  0.54910900  1
  Co  Co7  1  0.50000000  0.33232000  0.88621000  1
  Cu  Cu8  1  0.50088700  0.50450900  0.54657700  1
  Ni  Ni9  1  1.00000000  0.66768000  0.00000000  1
  Sb  Sb10  1  0.00000000  0.00000000  0.00000000  1
  Sb  Sb11  1  1.00000000  0.00000000  0.77241000  1
  Sb  Sb12  1  0.49726500  0.98187600  0.64697400  1
  Sb  Sb13  1  0.99893200  0.98509700  0.53275000  1
  Sb  Sb14  1  0.50000000  0.50000000  0.00000000  1
  Sb  Sb15  1  1.00000000  0.50000000  0.88621000  1
  Sb  Sb16  1  0.50000000  0.50000000  0.77241000  1
  Sb  Sb17  1  0.99869900  0.50261300  0.65807700  1
  Sb  Sb18  1  0.50000000  0.16768000  1.00000000  1
  Sb  Sb19  1  1.00000000  0.16768000  0.88621000  1
  Sb  Sb20  1  0.50000000  0.16768000  0.77241000  1
  Sb  Sb21  1  0.00232300  0.15332800  0.64939700  1
  Sb  Sb22  1  0.50000000  0.83232000  0.00000000  1
  Sb  Sb23  1  1.00000000  0.83232000  0.88621000  1
  Sb  Sb24  1  0.50000000  0.83232000  0.77241000  1
  Sb  Sb25  1  0.99176300  0.82356400  0.65999400  1
  Sb  Sb26  1  0.49464100  0.83950400  0.53389800  1
  Sb  Sb27  1  0.00000000  0.33232000  0.00000000  1
  Sb  Sb28  1  1.00000000  0.33232000  0.77241000  1
  Sb  Sb29  1  0.50009800  0.35036200  0.65662200  1
  Cl  Cl30  1  0.49390800  0.53451300  0.47364600  1
  O  O31  1  1.00000000  0.82836000  0.95506000  1
  O  O32  1  0.50000000  0.82836000  0.84126000  1
  O  O33  1  0.00019600  0.84474300  0.72934800  1
  O  O34  1  0.50359500  0.80425200  0.60443400  1
  O  O35  1  0.50000000  0.82836000  0.93115000  1
  O  O36  1  1.00000000  0.82836000  0.81736000  1
  O  O37  1  0.49959700  0.82653000  0.69933400  1
  O  O38  1  0.98260500  0.83193700  0.58758800  1
  O  O39  1  0.69747000  0.32836000  0.00000000  1
  O  O40  1  0.19747000  0.32836000  0.88621000  1
  O  O41  1  0.69747000  0.32836000  0.77241000  1
  O  O42  1  0.20331600  0.35271100  0.65757500  1
  O  O43  1  0.70584800  0.29111500  0.53248200  1
  O  O44  1  0.30253000  0.32836000  0.00000000  1
  O  O45  1  0.80253000  0.32836000  0.88621000  1
  O  O46  1  0.30253000  0.32836000  0.77241000  1
  O  O47  1  0.79719800  0.35063100  0.65857300  1
  O  O48  1  0.29269400  0.28464400  0.53200600  1
  O  O49  1  0.69747000  0.67164000  0.00000000  1
  O  O50  1  0.19747000  0.67164000  0.88621000  1
  O  O51  1  0.69747000  0.67164000  0.77241000  1
  O  O52  1  0.18686300  0.66694300  0.65612800  1
  O  O53  1  0.80503100  0.68417900  0.52181300  1
  O  O54  1  0.30253000  0.67164000  0.00000000  1
  O  O55  1  0.80253000  0.67164000  0.88621000  1
  O  O56  1  0.30253000  0.67164000  0.77241000  1
  O  O57  1  0.80375300  0.66386300  0.65871400  1
  O  O58  1  0.21153200  0.69698800  0.52754500  1
  O  O59  1  0.00000000  0.17164000  0.95506000  1
  O  O60  1  0.50000000  0.17164000  0.84126000  1
  O  O61  1  0.00021600  0.15531300  0.72933600  1
  O  O62  1  0.50013100  0.20544600  0.60720600  1
  O  O63  1  0.50000000  0.17164000  0.93115000  1
  O  O64  1  1.00000000  0.17164000  0.81736000  1
  O  O65  1  0.49741800  0.18559600  0.70104000  1
  O  O66  1  0.99257500  0.14400400  0.57629400  1
  O  O67  1  1.00000000  0.50000000  0.95668000  1
  O  O68  1  0.50000000  0.50000000  0.84289000  1
  O  O69  1  0.00049200  0.50002000  0.72830400  1
  O  O70  1  0.50082900  0.50957500  0.61236300  1
  O  O71  1  0.50000000  0.50000000  0.92952000  1
  O  O72  1  1.00000000  0.50000000  0.81573000  1
  O  O73  1  0.49484600  0.50650600  0.70275400  1
  O  O74  1  0.99677700  0.50261300  0.58567700  1
  O  O75  1  0.69034000  1.00000000  0.00000000  1
  O  O76  1  0.19034000  0.00000000  0.88621000  1
  O  O77  1  0.69034000  1.00000000  0.77241000  1
  O  O78  1  0.18598800  0.97446100  0.65648900  1
  O  O79  1  0.66691900  0.01754900  0.54360700  1
  O  O80  1  0.30966000  0.00000000  0.00000000  1
  O  O81  1  0.80966000  1.00000000  0.88621000  1
  O  O82  1  0.30966000  0.00000000  0.77241000  1
  O  O83  1  0.80718500  0.98208200  0.65858600  1
  O  O84  1  0.30496800  0.00391500  0.54495200  1
