# generated using pymatgen
data_MgTiMnVZnCrFeCoCuNiSb20ClO54
_symmetry_space_group_name_H-M   'P 1'
_cell_length_a   6.69928400
_cell_length_b   9.58097100
_cell_length_c   29.05183000
_cell_angle_alpha   89.57432800
_cell_angle_beta   89.95881100
_cell_angle_gamma   89.98968100
_symmetry_Int_Tables_number   1
_chemical_formula_structural   MgTiMnVZnCrFeCoCuNiSb20ClO54
_chemical_formula_sum
'Mg1 Ti1 Mn1 V1 Zn1 Cr1 Fe1 Co1 Cu1 Ni1 Sb20 Cl1 O54'
_cell_volume   1864.65849602
_cell_formula_units_Z   1
loop_
 _symmetry_equiv_pos_site_id
 _symmetry_equiv_pos_as_xyz
  1  'x, y, z'
loop_
 _atom_site_type_symbol
 _atom_site_label
 _atom_site_symmetry_multiplicity
 _atom_site_fract_x
 _atom_site_fract_y
 _atom_site_fract_z
 _atom_site_occupancy
  Mg  Mg0  1  0.00000000  0.16768000  0.11379000  1
  Ti  Ti1  1  0.50000000  0.33232000  0.11379000  1
  Mn  Mn2  1  0.99822400  0.99995900  0.44822000  1
  V  V3  1  0.99776000  0.17776800  0.33665500  1
  Zn  Zn4  1  0.50000000  0.83232000  0.00000000  1
  Cr  Cr5  1  0.99904900  0.66257200  0.45190200  1
  Fe  Fe6  1  0.50000000  1.00000000  0.11379000  1
  Co  Co7  1  0.00000000  0.33232000  0.22759000  1
  Cu  Cu8  1  0.49954100  0.57049100  0.46874000  1
  Ni  Ni9  1  0.00000000  0.00000000  0.00000000  1
  Sb  Sb10  1  0.00000000  0.00000000  0.22759000  1
  Sb  Sb11  1  0.49893700  0.00847100  0.34277600  1
  Sb  Sb12  1  0.50000000  0.50000000  0.00000000  1
  Sb  Sb13  1  0.00000000  0.50000000  0.11379000  1
  Sb  Sb14  1  0.50000000  0.50000000  0.22759000  1
  Sb  Sb15  1  0.99381800  0.48920600  0.34029400  1
  Sb  Sb16  1  0.00000000  0.33232000  0.00000000  1
  Sb  Sb17  1  0.49722000  0.34048000  0.37663600  1
  Sb  Sb18  1  0.99774300  0.31188700  0.45257900  1
  Sb  Sb19  1  0.00000000  0.83232000  0.11379000  1
  Sb  Sb20  1  0.50000000  0.83232000  0.22759000  1
  Sb  Sb21  1  0.99953900  0.84186200  0.34464600  1
  Sb  Sb22  1  0.49849200  0.85819100  0.46266000  1
  Sb  Sb23  1  0.50000000  0.16768000  0.00000000  1
  Sb  Sb24  1  0.50000000  0.16768000  0.22759000  1
  Sb  Sb25  1  0.49825300  0.20109200  0.47580900  1
  Sb  Sb26  1  0.00000000  0.66768000  0.00000000  1
  Sb  Sb27  1  0.50000000  0.66768000  0.11379000  1
  Sb  Sb28  1  0.00000000  0.66768000  0.22759000  1
  Sb  Sb29  1  0.49799800  0.67130300  0.34499900  1
  Cl  Cl30  1  0.49889000  0.43475300  0.53027000  1
  O  O31  1  0.00000000  0.17164000  0.04494000  1
  O  O32  1  0.50000000  0.17164000  0.15874000  1
  O  O33  1  0.00019600  0.15525700  0.27065200  1
  O  O34  1  0.49945200  0.12905500  0.39519700  1
  O  O35  1  0.50000000  0.17164000  0.06885000  1
  O  O36  1  0.00000000  0.17164000  0.18264000  1
  O  O37  1  0.49712200  0.15386400  0.29611700  1
  O  O38  1  0.99690900  0.16208600  0.40268500  1
  O  O39  1  0.69747000  0.67164000  0.00000000  1
  O  O40  1  0.19747000  0.67164000  0.11379000  1
  O  O41  1  0.69747000  0.67164000  0.22759000  1
  O  O42  1  0.19279200  0.68106600  0.33931700  1
  O  O43  1  0.78731600  0.66146000  0.48016600  1
  O  O44  1  0.30253000  0.67164000  0.00000000  1
  O  O45  1  0.80253000  0.67164000  0.11379000  1
  O  O46  1  0.30253000  0.67164000  0.22759000  1
  O  O47  1  0.80272500  0.68403500  0.33941800  1
  O  O48  1  0.21123100  0.66010700  0.48005600  1
  O  O49  1  0.69747000  0.32836000  0.00000000  1
  O  O50  1  0.19747000  0.32836000  0.11379000  1
  O  O51  1  0.69747000  0.32836000  0.22759000  1
  O  O52  1  0.18324300  0.30528900  0.33753800  1
  O  O53  1  0.68930800  0.32420100  0.43661800  1
  O  O54  1  0.30253000  0.32836000  0.00000000  1
  O  O55  1  0.80253000  0.32836000  0.11379000  1
  O  O56  1  0.30253000  0.32836000  0.22759000  1
  O  O57  1  0.80893300  0.30229900  0.33668700  1
  O  O58  1  0.30605000  0.32390900  0.43666700  1
  O  O59  1  0.00000000  0.82836000  0.04494000  1
  O  O60  1  0.50000000  0.82836000  0.15874000  1
  O  O61  1  0.00021600  0.84468700  0.27066400  1
  O  O62  1  0.49703000  0.84374100  0.38767800  1
  O  O63  1  0.50000000  0.82836000  0.06885000  1
  O  O64  1  0.00000000  0.82836000  0.18264000  1
  O  O65  1  0.49758000  0.83779500  0.29933900  1
  O  O66  1  0.99920800  0.81757600  0.41345200  1
  O  O67  1  0.00000000  0.50000000  0.04332000  1
  O  O68  1  0.50000000  0.50000000  0.15711000  1
  O  O69  1  0.00049200  0.49998000  0.27169600  1
  O  O70  1  0.50122100  0.56110000  0.40116300  1
  O  O71  1  0.50000000  0.50000000  0.07048000  1
  O  O72  1  0.00000000  0.50000000  0.18427000  1
  O  O73  1  0.50080600  0.52281400  0.29909600  1
  O  O74  1  0.99835500  0.50275200  0.41941100  1
  O  O75  1  0.69034000  0.00000000  0.00000000  1
  O  O76  1  0.19034000  1.00000000  0.11379000  1
  O  O77  1  0.69034000  0.00000000  0.22759000  1
  O  O78  1  0.19275700  0.99936700  0.34062300  1
  O  O79  1  0.71606400  0.00020700  0.46600200  1
  O  O80  1  0.30966000  1.00000000  0.00000000  1
  O  O81  1  0.80966000  0.00000000  0.11379000  1
  O  O82  1  0.30966000  1.00000000  0.22759000  1
  O  O83  1  0.80521500  0.99917200  0.34049500  1
  O  O84  1  0.28047900  0.00013700  0.46570400  1
