# generated using pymatgen
data_MgTiMnVZnCrFeCoCuNiSb20ClO54
_symmetry_space_group_name_H-M   'P 1'
_cell_length_a   6.74395600
_cell_length_b   9.54885200
_cell_length_c   28.81454200
_cell_angle_alpha   89.94288400
_cell_angle_beta   89.93579600
_cell_angle_gamma   89.94408700
_symmetry_Int_Tables_number   1
_chemical_formula_structural   MgTiMnVZnCrFeCoCuNiSb20ClO54
_chemical_formula_sum
'Mg1 Ti1 Mn1 V1 Zn1 Cr1 Fe1 Co1 Cu1 Ni1 Sb20 Cl1 O54'
_cell_volume   1855.56818010
_cell_formula_units_Z   1
loop_
 _symmetry_equiv_pos_site_id
 _symmetry_equiv_pos_as_xyz
  1  'x, y, z'
loop_
 _atom_site_type_symbol
 _atom_site_label
 _atom_site_symmetry_multiplicity
 _atom_site_fract_x
 _atom_site_fract_y
 _atom_site_fract_z
 _atom_site_occupancy
  Mg  Mg0  1  0.50000000  0.66768000  0.11379000  1
  Ti  Ti1  1  0.50000000  1.00000000  0.11379000  1
  Mn  Mn2  1  0.49902400  0.00232900  0.33943100  1
  V  V3  1  0.00015300  0.68067200  0.45669600  1
  Zn  Zn4  1  0.00000000  0.50000000  0.11379000  1
  Cr  Cr5  1  0.50000000  0.83232000  0.00000000  1
  Fe  Fe6  1  0.49780200  0.16587600  0.45106700  1
  Co  Co7  1  0.50000000  0.16768000  0.22759000  1
  Cu  Cu8  1  0.50956300  0.48236300  0.45697800  1
  Ni  Ni9  1  0.00000000  0.83232000  0.11379000  1
  Sb  Sb10  1  0.00000000  0.00000000  0.00000000  1
  Sb  Sb11  1  0.00000000  0.00000000  0.22759000  1
  Sb  Sb12  1  0.99862200  0.99450000  0.46567200  1
  Sb  Sb13  1  0.50000000  0.50000000  0.00000000  1
  Sb  Sb14  1  0.50000000  0.50000000  0.22759000  1
  Sb  Sb15  1  0.99326400  0.48684200  0.34717300  1
  Sb  Sb16  1  0.00000000  0.33232000  0.00000000  1
  Sb  Sb17  1  0.50000000  0.33232000  0.11379000  1
  Sb  Sb18  1  0.00000000  0.33232000  0.22759000  1
  Sb  Sb19  1  0.49812200  0.31545000  0.34632400  1
  Sb  Sb20  1  0.99787500  0.31737800  0.47019600  1
  Sb  Sb21  1  0.50000000  0.83232000  0.22759000  1
  Sb  Sb22  1  0.99940000  0.83603400  0.34289300  1
  Sb  Sb23  1  0.50043400  0.83483000  0.45936400  1
  Sb  Sb24  1  0.50000000  0.16768000  0.00000000  1
  Sb  Sb25  1  0.00000000  0.16768000  0.11379000  1
  Sb  Sb26  1  0.99761900  0.15222800  0.34500600  1
  Sb  Sb27  1  0.00000000  0.66768000  0.00000000  1
  Sb  Sb28  1  0.00000000  0.66768000  0.22759000  1
  Sb  Sb29  1  0.50010200  0.67640600  0.34520300  1
  Cl  Cl30  1  0.49307300  0.51884200  0.52976100  1
  O  O31  1  0.00000000  0.17164000  0.04494000  1
  O  O32  1  0.50000000  0.17164000  0.15874000  1
  O  O33  1  0.00019600  0.15525700  0.27065200  1
  O  O34  1  0.50286300  0.13462100  0.38496500  1
  O  O35  1  0.50000000  0.17164000  0.06885000  1
  O  O36  1  0.00000000  0.17164000  0.18264000  1
  O  O37  1  0.49601300  0.15121300  0.29753500  1
  O  O38  1  0.99406000  0.15231400  0.41496600  1
  O  O39  1  0.69747000  0.67164000  0.00000000  1
  O  O40  1  0.19747000  0.67164000  0.11379000  1
  O  O41  1  0.69747000  0.67164000  0.22759000  1
  O  O42  1  0.19576800  0.68149900  0.34111100  1
  O  O43  1  0.80923700  0.72371800  0.48929300  1
  O  O44  1  0.30253000  0.67164000  0.00000000  1
  O  O45  1  0.80253000  0.67164000  0.11379000  1
  O  O46  1  0.30253000  0.67164000  0.22759000  1
  O  O47  1  0.80247200  0.68372400  0.33806200  1
  O  O48  1  0.19937700  0.72765800  0.48582300  1
  O  O49  1  0.69747000  0.32836000  0.00000000  1
  O  O50  1  0.19747000  0.32836000  0.11379000  1
  O  O51  1  0.69747000  0.32836000  0.22759000  1
  O  O52  1  0.18323000  0.30887600  0.33872900  1
  O  O53  1  0.69010600  0.30408000  0.45222000  1
  O  O54  1  0.30253000  0.32836000  0.00000000  1
  O  O55  1  0.80253000  0.32836000  0.11379000  1
  O  O56  1  0.30253000  0.32836000  0.22759000  1
  O  O57  1  0.81037600  0.30724600  0.33623000  1
  O  O58  1  0.29722500  0.29826000  0.45358300  1
  O  O59  1  0.00000000  0.82836000  0.04494000  1
  O  O60  1  0.50000000  0.82836000  0.15874000  1
  O  O61  1  0.00021600  0.84468700  0.27066400  1
  O  O62  1  0.50202500  0.84562100  0.38617400  1
  O  O63  1  0.50000000  0.82836000  0.06885000  1
  O  O64  1  0.00000000  0.82836000  0.18264000  1
  O  O65  1  0.49559700  0.83549400  0.29780400  1
  O  O66  1  0.99182600  0.83325700  0.41400000  1
  O  O67  1  0.00000000  0.50000000  0.04332000  1
  O  O68  1  0.50000000  0.50000000  0.15711000  1
  O  O69  1  0.00049200  0.49998000  0.27169600  1
  O  O70  1  0.51320100  0.53747600  0.39372300  1
  O  O71  1  0.50000000  0.50000000  0.07048000  1
  O  O72  1  0.00000000  0.50000000  0.18427000  1
  O  O73  1  0.49834100  0.51922100  0.29782400  1
  O  O74  1  0.00115100  0.50254300  0.43660300  1
  O  O75  1  0.69034000  0.00000000  0.00000000  1
  O  O76  1  0.19034000  1.00000000  0.11379000  1
  O  O77  1  0.69034000  0.00000000  0.22759000  1
  O  O78  1  0.19450100  0.99439200  0.34251900  1
  O  O79  1  0.68400200  0.00781000  0.46118900  1
  O  O80  1  0.30966000  1.00000000  0.00000000  1
  O  O81  1  0.80966000  0.00000000  0.11379000  1
  O  O82  1  0.30966000  1.00000000  0.22759000  1
  O  O83  1  0.80310500  0.99438200  0.34098000  1
  O  O84  1  0.31333500  0.00429100  0.45941400  1
