# generated using pymatgen
data_MgTiMnVZnCrFeCoCuNiSb20ClO54
_symmetry_space_group_name_H-M   'P 1'
_cell_length_a   6.70607900
_cell_length_b   9.61020800
_cell_length_c   29.85986500
_cell_angle_alpha   90.05569100
_cell_angle_beta   89.94463300
_cell_angle_gamma   89.64040600
_symmetry_Int_Tables_number   1
_chemical_formula_structural   MgTiMnVZnCrFeCoCuNiSb20ClO54
_chemical_formula_sum
'Mg1 Ti1 Mn1 V1 Zn1 Cr1 Fe1 Co1 Cu1 Ni1 Sb20 Cl1 O54'
_cell_volume   1924.33344858
_cell_formula_units_Z   1
loop_
 _symmetry_equiv_pos_site_id
 _symmetry_equiv_pos_as_xyz
  1  'x, y, z'
loop_
 _atom_site_type_symbol
 _atom_site_label
 _atom_site_symmetry_multiplicity
 _atom_site_fract_x
 _atom_site_fract_y
 _atom_site_fract_z
 _atom_site_occupancy
  Mg  Mg0  1  0.00000000  0.33232000  0.00000000  1
  Ti  Ti1  1  1.00000000  0.50000000  0.88621000  1
  Mn  Mn2  1  0.00121900  0.81517700  0.66184600  1
  V  V3  1  0.50000000  0.16768000  0.00000000  1
  Zn  Zn4  1  0.50000000  0.83232000  0.00000000  1
  Cr  Cr5  1  0.50858500  0.67226700  0.66291300  1
  Fe  Fe6  1  0.50782700  0.83368300  0.55731900  1
  Co  Co7  1  0.97950200  0.33690400  0.56997700  1
  Cu  Cu8  1  0.53376800  0.51424600  0.55611800  1
  Ni  Ni9  1  0.00104600  0.51176300  0.66273000  1
  Sb  Sb10  1  0.00000000  0.00000000  0.00000000  1
  Sb  Sb11  1  0.50000000  0.00000000  0.88621000  1
  Sb  Sb12  1  1.00000000  0.00000000  0.77241000  1
  Sb  Sb13  1  0.50086100  0.99560800  0.65901100  1
  Sb  Sb14  1  0.99327500  0.98127900  0.55038900  1
  Sb  Sb15  1  0.50000000  0.50000000  1.00000000  1
  Sb  Sb16  1  0.50000000  0.50000000  0.77241000  1
  Sb  Sb17  1  0.00000000  0.66768000  0.00000000  1
  Sb  Sb18  1  0.50000000  0.66768000  0.88621000  1
  Sb  Sb19  1  1.00000000  0.66768000  0.77241000  1
  Sb  Sb20  1  0.02000300  0.65733300  0.55120400  1
  Sb  Sb21  1  1.00000000  0.16768000  0.88621000  1
  Sb  Sb22  1  0.50000000  0.16768000  0.77241000  1
  Sb  Sb23  1  0.00040800  0.16217500  0.65906800  1
  Sb  Sb24  1  0.48006700  0.17621600  0.54624100  1
  Sb  Sb25  1  1.00000000  0.83232000  0.88621000  1
  Sb  Sb26  1  0.50000000  0.83232000  0.77241000  1
  Sb  Sb27  1  0.50000000  0.33232000  0.88621000  1
  Sb  Sb28  1  1.00000000  0.33232000  0.77241000  1
  Sb  Sb29  1  0.50072400  0.34709800  0.65634500  1
  Cl  Cl30  1  0.51580500  0.47315200  0.48523900  1
  O  O31  1  0.00000000  0.82836000  0.95506000  1
  O  O32  1  0.50000000  0.82836000  0.84126000  1
  O  O33  1  0.00019600  0.84474300  0.72934800  1
  O  O34  1  0.50729800  0.82402100  0.62259500  1
  O  O35  1  0.50000000  0.82836000  0.93115000  1
  O  O36  1  0.00000000  0.82836000  0.81736000  1
  O  O37  1  0.49854400  0.83523200  0.70592400  1
  O  O38  1  0.00887100  0.82467200  0.59659100  1
  O  O39  1  0.69747000  0.32836000  0.00000000  1
  O  O40  1  0.19747000  0.32836000  0.88621000  1
  O  O41  1  0.69747000  0.32836000  0.77241000  1
  O  O42  1  0.19366900  0.32672300  0.66280700  1
  O  O43  1  0.71096800  0.34254200  0.56324600  1
  O  O44  1  0.30253000  0.32836000  0.00000000  1
  O  O45  1  0.80253000  0.32836000  0.88621000  1
  O  O46  1  0.30253000  0.32836000  0.77241000  1
  O  O47  1  0.80652400  0.32609700  0.66371200  1
  O  O48  1  0.23360200  0.31643300  0.55691900  1
  O  O49  1  0.69747000  0.67164000  0.00000000  1
  O  O50  1  0.19747000  0.67164000  0.88621000  1
  O  O51  1  0.69747000  0.67164000  0.77241000  1
  O  O52  1  0.19189800  0.67798300  0.66675800  1
  O  O53  1  0.70538200  0.71267300  0.54824300  1
  O  O54  1  0.30253000  0.67164000  0.00000000  1
  O  O55  1  0.80253000  0.67164000  0.88621000  1
  O  O56  1  0.30253000  0.67164000  0.77241000  1
  O  O57  1  0.80619500  0.67550800  0.66756000  1
  O  O58  1  0.33307400  0.69011100  0.55219300  1
  O  O59  1  0.00000000  0.17164000  0.95506000  1
  O  O60  1  0.50000000  0.17164000  0.84126000  1
  O  O61  1  0.00021600  0.15531300  0.72933600  1
  O  O62  1  0.49125900  0.16744200  0.61739600  1
  O  O63  1  0.50000000  0.17164000  0.93115000  1
  O  O64  1  0.00000000  0.17164000  0.81736000  1
  O  O65  1  0.49957400  0.16654700  0.70374100  1
  O  O66  1  0.97411400  0.14807700  0.59250000  1
  O  O67  1  1.00000000  0.50000000  0.95668000  1
  O  O68  1  0.50000000  0.50000000  0.84289000  1
  O  O69  1  0.00049200  0.50002000  0.72830400  1
  O  O70  1  0.49653300  0.52255700  0.61985900  1
  O  O71  1  0.50000000  0.50000000  0.92952000  1
  O  O72  1  0.00000000  0.50000000  0.81573000  1
  O  O73  1  0.49868500  0.50310700  0.70364800  1
  O  O74  1  0.99323200  0.51046400  0.59804200  1
  O  O75  1  0.69034000  1.00000000  0.00000000  1
  O  O76  1  0.19034000  0.00000000  0.88621000  1
  O  O77  1  0.69034000  1.00000000  0.77241000  1
  O  O78  1  0.19159100  0.99448600  0.66219600  1
  O  O79  1  0.67733700  0.98956900  0.55638400  1
  O  O80  1  0.30966000  0.00000000  1.00000000  1
  O  O81  1  0.80966000  1.00000000  0.88621000  1
  O  O82  1  0.30966000  0.00000000  0.77241000  1
  O  O83  1  0.80915400  0.99485800  0.66316500  1
  O  O84  1  0.31268600  0.98627600  0.55635700  1
