# generated using pymatgen
data_MgTiMnVZnCrFeCoCuNiSb20ClO54
_symmetry_space_group_name_H-M   'P 1'
_cell_length_a   6.60759900
_cell_length_b   9.67449800
_cell_length_c   29.37386500
_cell_angle_alpha   89.99215800
_cell_angle_beta   89.60610200
_cell_angle_gamma   89.94531700
_symmetry_Int_Tables_number   1
_chemical_formula_structural   MgTiMnVZnCrFeCoCuNiSb20ClO54
_chemical_formula_sum
'Mg1 Ti1 Mn1 V1 Zn1 Cr1 Fe1 Co1 Cu1 Ni1 Sb20 Cl1 O54'
_cell_volume   1877.68504751
_cell_formula_units_Z   1
loop_
 _symmetry_equiv_pos_site_id
 _symmetry_equiv_pos_as_xyz
  1  'x, y, z'
loop_
 _atom_site_type_symbol
 _atom_site_label
 _atom_site_symmetry_multiplicity
 _atom_site_fract_x
 _atom_site_fract_y
 _atom_site_fract_z
 _atom_site_occupancy
  Mg  Mg0  1  1.00000000  0.66768000  1.00000000  1
  Ti  Ti1  1  0.50000000  0.16768000  0.00000000  1
  Mn  Mn2  1  0.00000000  0.33232000  1.00000000  1
  V  V3  1  0.50731900  0.15446300  0.44497500  1
  Zn  Zn4  1  0.50000000  0.83232000  0.00000000  1
  Cr  Cr5  1  0.99603000  0.49519800  0.34082500  1
  Fe  Fe6  1  0.50000000  0.83232000  0.22759000  1
  Co  Co7  1  0.50000000  0.16768000  0.22759000  1
  Cu  Cu8  1  0.52446000  0.46831700  0.45842100  1
  Ni  Ni9  1  0.01184500  0.02110800  0.44737100  1
  Sb  Sb10  1  0.00000000  0.00000000  0.00000000  1
  Sb  Sb11  1  0.50000000  1.00000000  0.11379000  1
  Sb  Sb12  1  1.00000000  1.00000000  0.22759000  1
  Sb  Sb13  1  0.50351800  0.99787600  0.33541100  1
  Sb  Sb14  1  0.50000000  0.50000000  0.00000000  1
  Sb  Sb15  1  1.00000000  0.50000000  0.11379000  1
  Sb  Sb16  1  0.50000000  0.50000000  0.22759000  1
  Sb  Sb17  1  0.50000000  0.33232000  0.11379000  1
  Sb  Sb18  1  1.00000000  0.33232000  0.22759000  1
  Sb  Sb19  1  0.50364300  0.33151800  0.33772300  1
  Sb  Sb20  1  0.00649500  0.32289900  0.45620600  1
  Sb  Sb21  1  1.00000000  0.83232000  0.11379000  1
  Sb  Sb22  1  0.97739500  0.81845900  0.34959000  1
  Sb  Sb23  1  0.52113400  0.80363700  0.45770900  1
  Sb  Sb24  1  1.00000000  0.16768000  0.11379000  1
  Sb  Sb25  1  0.01018700  0.17190900  0.34050700  1
  Sb  Sb26  1  0.50000000  0.66768000  0.11379000  1
  Sb  Sb27  1  1.00000000  0.66768000  0.22759000  1
  Sb  Sb28  1  0.47879600  0.66014400  0.35509500  1
  Sb  Sb29  1  0.02108100  0.64899500  0.45375100  1
  Cl  Cl30  1  0.39420400  0.59084400  0.51896900  1
  O  O31  1  1.00000000  0.17164000  0.04494000  1
  O  O32  1  0.50000000  0.17164000  0.15874000  1
  O  O33  1  0.00019600  0.15525700  0.27065200  1
  O  O34  1  0.49499600  0.16299300  0.38085300  1
  O  O35  1  0.50000000  0.17164000  0.06885000  1
  O  O36  1  1.00000000  0.17164000  0.18264000  1
  O  O37  1  0.50104200  0.16875800  0.29425200  1
  O  O38  1  0.02908700  0.18060100  0.40657300  1
  O  O39  1  0.69747000  0.67164000  1.00000000  1
  O  O40  1  0.19747000  0.67164000  0.11379000  1
  O  O41  1  0.69747000  0.67164000  0.22759000  1
  O  O42  1  0.18281700  0.64785500  0.33655500  1
  O  O43  1  0.70091000  0.63416100  0.44620800  1
  O  O44  1  0.30253000  0.67164000  0.00000000  1
  O  O45  1  0.80253000  0.67164000  0.11379000  1
  O  O46  1  0.30253000  0.67164000  0.22759000  1
  O  O47  1  0.79280100  0.64063400  0.34464300  1
  O  O48  1  0.31905000  0.68934900  0.42084900  1
  O  O49  1  0.69747000  0.32836000  1.00000000  1
  O  O50  1  0.19747000  0.32836000  0.11379000  1
  O  O51  1  0.69747000  0.32836000  0.22759000  1
  O  O52  1  0.19393500  0.33460700  0.33340500  1
  O  O53  1  0.70094600  0.30907300  0.44740500  1
  O  O54  1  0.30253000  0.32836000  0.00000000  1
  O  O55  1  0.80253000  0.32836000  0.11379000  1
  O  O56  1  0.30253000  0.32836000  0.22759000  1
  O  O57  1  0.81170600  0.33160100  0.33654200  1
  O  O58  1  0.34699100  0.30610400  0.45993700  1
  O  O59  1  1.00000000  0.82836000  0.04494000  1
  O  O60  1  0.50000000  0.82836000  0.15874000  1
  O  O61  1  0.00021600  0.84468700  0.27066400  1
  O  O62  1  0.55503900  0.85353000  0.38510300  1
  O  O63  1  0.50000000  0.82836000  0.06885000  1
  O  O64  1  1.00000000  0.82836000  0.18264000  1
  O  O65  1  0.49722900  0.82146700  0.30046600  1
  O  O66  1  0.96389500  0.82995900  0.42263300  1
  O  O67  1  1.00000000  0.50000000  0.04332000  1
  O  O68  1  0.50000000  0.50000000  0.15711000  1
  O  O69  1  0.00049200  0.49998000  0.27169600  1
  O  O70  1  0.49023500  0.47252200  0.38532600  1
  O  O71  1  0.50000000  0.50000000  0.07048000  1
  O  O72  1  1.00000000  0.50000000  0.18427000  1
  O  O73  1  0.49984100  0.50107600  0.29777200  1
  O  O74  1  0.02193900  0.48337200  0.40813700  1
  O  O75  1  0.69034000  0.00000000  1.00000000  1
  O  O76  1  0.19034000  1.00000000  0.11379000  1
  O  O77  1  0.69034000  0.00000000  0.22759000  1
  O  O78  1  0.20012800  0.00744400  0.33980300  1
  O  O79  1  0.71478200  0.04519500  0.45531500  1
  O  O80  1  0.30966000  1.00000000  0.00000000  1
  O  O81  1  0.80966000  0.00000000  0.11379000  1
  O  O82  1  0.30966000  1.00000000  0.22759000  1
  O  O83  1  0.80536500  0.02022200  0.33999800  1
  O  O84  1  0.30570600  0.03765700  0.45361700  1
