# generated using pymatgen
data_MgTiMnVZnCrFeCoCuNiSb20ClO54
_symmetry_space_group_name_H-M   'P 1'
_cell_length_a   6.64283000
_cell_length_b   9.61014900
_cell_length_c   29.52504600
_cell_angle_alpha   90.06780100
_cell_angle_beta   89.99146800
_cell_angle_gamma   89.98109800
_symmetry_Int_Tables_number   1
_chemical_formula_structural   MgTiMnVZnCrFeCoCuNiSb20ClO54
_chemical_formula_sum
'Mg1 Ti1 Mn1 V1 Zn1 Cr1 Fe1 Co1 Cu1 Ni1 Sb20 Cl1 O54'
_cell_volume   1884.83574737
_cell_formula_units_Z   1
loop_
 _symmetry_equiv_pos_site_id
 _symmetry_equiv_pos_as_xyz
  1  'x, y, z'
loop_
 _atom_site_type_symbol
 _atom_site_label
 _atom_site_symmetry_multiplicity
 _atom_site_fract_x
 _atom_site_fract_y
 _atom_site_fract_z
 _atom_site_occupancy
  Mg  Mg0  1  1.00000000  0.16768000  0.88621000  1
  Ti  Ti1  1  0.50062400  0.66226300  0.66006000  1
  Mn  Mn2  1  0.00000000  0.00000000  0.00000000  1
  V  V3  1  0.99996200  0.15742900  0.65898000  1
  Zn  Zn4  1  0.50000000  0.50000000  1.00000000  1
  Cr  Cr5  1  1.00000000  0.66768000  0.77241000  1
  Fe  Fe6  1  0.00000000  0.33232000  1.00000000  1
  Co  Co7  1  0.00218800  0.99505800  0.57016600  1
  Cu  Cu8  1  0.50430300  0.49845200  0.55285200  1
  Ni  Ni9  1  0.00087600  0.83174200  0.66322400  1
  Sb  Sb10  1  0.50000000  0.00000000  0.88621000  1
  Sb  Sb11  1  0.00000000  1.00000000  0.77241000  1
  Sb  Sb12  1  0.50014300  0.99591200  0.65945100  1
  Sb  Sb13  1  0.00000000  0.50000000  0.88621000  1
  Sb  Sb14  1  0.50000000  0.50000000  0.77241000  1
  Sb  Sb15  1  0.00096000  0.50684800  0.65976900  1
  Sb  Sb16  1  0.50000000  0.33232000  0.88621000  1
  Sb  Sb17  1  0.00000000  0.33232000  0.77241000  1
  Sb  Sb18  1  0.50131500  0.33640900  0.65314200  1
  Sb  Sb19  1  0.99662600  0.32974400  0.54910200  1
  Sb  Sb20  1  0.50000000  0.83232000  0.00000000  1
  Sb  Sb21  1  0.00000000  0.83232000  0.88621000  1
  Sb  Sb22  1  0.50000000  0.83232000  0.77241000  1
  Sb  Sb23  1  0.50413200  0.82969100  0.54673900  1
  Sb  Sb24  1  0.50000000  0.16768000  1.00000000  1
  Sb  Sb25  1  0.50000000  0.16768000  0.77241000  1
  Sb  Sb26  1  0.49667300  0.18437300  0.54287700  1
  Sb  Sb27  1  1.00000000  0.66768000  1.00000000  1
  Sb  Sb28  1  0.50000000  0.66768000  0.88621000  1
  Sb  Sb29  1  0.00443600  0.68510500  0.54713600  1
  Cl  Cl30  1  0.51082100  0.41878600  0.47926200  1
  O  O31  1  0.00000000  0.17164000  0.95506000  1
  O  O32  1  0.50000000  0.17164000  0.84126000  1
  O  O33  1  0.99980400  0.15525700  0.72934800  1
  O  O34  1  0.49708100  0.15466600  0.61587100  1
  O  O35  1  0.50000000  0.17164000  0.93115000  1
  O  O36  1  1.00000000  0.17164000  0.81736000  1
  O  O37  1  0.50112600  0.16987400  0.70285400  1
  O  O38  1  0.99716700  0.17414800  0.59842600  1
  O  O39  1  0.30253000  0.67164000  1.00000000  1
  O  O40  1  0.80253000  0.67164000  0.88621000  1
  O  O41  1  0.30253000  0.67164000  0.77241000  1
  O  O42  1  0.80046800  0.66146400  0.66282200  1
  O  O43  1  0.31538600  0.66041200  0.55071500  1
  O  O44  1  0.69747000  0.67164000  1.00000000  1
  O  O45  1  0.19747000  0.67164000  0.88621000  1
  O  O46  1  0.69747000  0.67164000  0.77241000  1
  O  O47  1  0.20064700  0.66180900  0.66350000  1
  O  O48  1  0.69572200  0.66547600  0.55207800  1
  O  O49  1  0.30253000  0.32836000  1.00000000  1
  O  O50  1  0.80253000  0.32836000  0.88621000  1
  O  O51  1  0.30253000  0.32836000  0.77241000  1
  O  O52  1  0.81301000  0.33103400  0.66334800  1
  O  O53  1  0.29965800  0.33048100  0.56658900  1
  O  O54  1  0.69747000  0.32836000  1.00000000  1
  O  O55  1  0.19747000  0.32836000  0.88621000  1
  O  O56  1  0.69747000  0.32836000  0.77241000  1
  O  O57  1  0.18825100  0.33104800  0.66315600  1
  O  O58  1  0.69100600  0.33286100  0.56869800  1
  O  O59  1  1.00000000  0.82836000  0.95506000  1
  O  O60  1  0.50000000  0.82836000  0.84126000  1
  O  O61  1  0.99978400  0.84468700  0.72933600  1
  O  O62  1  0.50015100  0.83007600  0.61806700  1
  O  O63  1  0.50000000  0.82836000  0.93115000  1
  O  O64  1  1.00000000  0.82836000  0.81736000  1
  O  O65  1  0.50045900  0.83378200  0.70418700  1
  O  O66  1  0.00848400  0.82288300  0.59774300  1
  O  O67  1  0.00000000  0.50000000  0.95668000  1
  O  O68  1  0.50000000  0.50000000  0.84289000  1
  O  O69  1  0.99950800  0.49998000  0.72830400  1
  O  O70  1  0.49732000  0.51665600  0.61937500  1
  O  O71  1  0.50000000  0.50000000  0.92952000  1
  O  O72  1  0.00000000  0.50000000  0.81573000  1
  O  O73  1  0.50116600  0.49685600  0.70288400  1
  O  O74  1  0.00136500  0.50587300  0.59003000  1
  O  O75  1  0.30966000  1.00000000  1.00000000  1
  O  O76  1  0.80966000  0.00000000  0.88621000  1
  O  O77  1  0.30966000  1.00000000  0.77241000  1
  O  O78  1  0.80656500  0.00655400  0.66255700  1
  O  O79  1  0.25867000  0.00385800  0.55389300  1
  O  O80  1  0.69034000  0.00000000  0.00000000  1
  O  O81  1  0.19034000  1.00000000  0.88621000  1
  O  O82  1  0.69034000  0.00000000  0.77241000  1
  O  O83  1  0.19344400  0.00655200  0.66302500  1
  O  O84  1  0.74621100  0.99934400  0.55395300  1
