# generated using pymatgen
data_MgTiMnVZnCrFeCoCuNiSb20ClO54
_symmetry_space_group_name_H-M   'P 1'
_cell_length_a   6.60138200
_cell_length_b   9.55232200
_cell_length_c   29.29502300
_cell_angle_alpha   90.07850600
_cell_angle_beta   89.98480400
_cell_angle_gamma   89.99637800
_symmetry_Int_Tables_number   1
_chemical_formula_structural   MgTiMnVZnCrFeCoCuNiSb20ClO54
_chemical_formula_sum
'Mg1 Ti1 Mn1 V1 Zn1 Cr1 Fe1 Co1 Cu1 Ni1 Sb20 Cl1 O54'
_cell_volume   1847.29918165
_cell_formula_units_Z   1
loop_
 _symmetry_equiv_pos_site_id
 _symmetry_equiv_pos_as_xyz
  1  'x, y, z'
loop_
 _atom_site_type_symbol
 _atom_site_label
 _atom_site_symmetry_multiplicity
 _atom_site_fract_x
 _atom_site_fract_y
 _atom_site_fract_z
 _atom_site_occupancy
  Mg  Mg0  1  0.50000000  0.50000000  0.77241000  1
  Ti  Ti1  1  0.50000000  0.16768000  0.77241000  1
  Mn  Mn2  1  0.50000000  0.50000000  1.00000000  1
  V  V3  1  1.00000000  0.66768000  0.77241000  1
  Zn  Zn4  1  1.00000000  0.16768000  0.88621000  1
  Cr  Cr5  1  0.99952700  0.16469400  0.66040500  1
  Fe  Fe6  1  0.00000000  0.33232000  1.00000000  1
  Co  Co7  1  0.00000000  0.00000000  0.00000000  1
  Cu  Cu8  1  0.49988100  0.50208200  0.54554200  1
  Ni  Ni9  1  0.99826200  0.64798800  0.55034700  1
  Sb  Sb10  1  0.50000000  1.00000000  0.88621000  1
  Sb  Sb11  1  1.00000000  1.00000000  0.77241000  1
  Sb  Sb12  1  0.49940000  0.00462000  0.65535900  1
  Sb  Sb13  1  0.99704700  0.02064200  0.55610800  1
  Sb  Sb14  1  0.00000000  0.50000000  0.88621000  1
  Sb  Sb15  1  0.99806000  0.48686200  0.65960100  1
  Sb  Sb16  1  1.00000000  0.66768000  1.00000000  1
  Sb  Sb17  1  0.50000000  0.66768000  0.88621000  1
  Sb  Sb18  1  0.49935400  0.65485000  0.65749300  1
  Sb  Sb19  1  0.50000000  0.16768000  1.00000000  1
  Sb  Sb20  1  0.49943400  0.21485300  0.51138500  1
  Sb  Sb21  1  0.50000000  0.83232000  1.00000000  1
  Sb  Sb22  1  0.00000000  0.83232000  0.88621000  1
  Sb  Sb23  1  0.50000000  0.83232000  0.77241000  1
  Sb  Sb24  1  0.99974200  0.83718200  0.65781000  1
  Sb  Sb25  1  0.49752300  0.81004500  0.53567300  1
  Sb  Sb26  1  0.50000000  0.33232000  0.88621000  1
  Sb  Sb27  1  1.00000000  0.33232000  0.77241000  1
  Sb  Sb28  1  0.49949000  0.32756200  0.65933900  1
  Sb  Sb29  1  0.00068900  0.37682300  0.53393700  1
  Cl  Cl30  1  0.49749900  0.40891200  0.45279600  1
  O  O31  1  1.00000000  0.82836000  0.95506000  1
  O  O32  1  0.50000000  0.82836000  0.84126000  1
  O  O33  1  0.00019600  0.84474300  0.72934800  1
  O  O34  1  0.49887300  0.83717200  0.61219800  1
  O  O35  1  0.50000000  0.82836000  0.93115000  1
  O  O36  1  0.00000000  0.82836000  0.81736000  1
  O  O37  1  0.49781500  0.83999100  0.70128300  1
  O  O38  1  0.99709600  0.83746400  0.58819600  1
  O  O39  1  0.69747000  0.32836000  1.00000000  1
  O  O40  1  0.19747000  0.32836000  0.88621000  1
  O  O41  1  0.69747000  0.32836000  0.77241000  1
  O  O42  1  0.19155600  0.32257900  0.66460100  1
  O  O43  1  0.69136800  0.34171900  0.54627000  1
  O  O44  1  0.30253000  0.32836000  1.00000000  1
  O  O45  1  0.80253000  0.32836000  0.88621000  1
  O  O46  1  0.30253000  0.32836000  0.77241000  1
  O  O47  1  0.80666400  0.32225400  0.66487200  1
  O  O48  1  0.30857500  0.34160900  0.54722800  1
  O  O49  1  0.69747000  0.67164000  0.00000000  1
  O  O50  1  0.19747000  0.67164000  0.88621000  1
  O  O51  1  0.69747000  0.67164000  0.77241000  1
  O  O52  1  0.18901500  0.66002100  0.66023100  1
  O  O53  1  0.70685300  0.65727700  0.54345800  1
  O  O54  1  0.30253000  0.67164000  0.00000000  1
  O  O55  1  0.80253000  0.67164000  0.88621000  1
  O  O56  1  0.30253000  0.67164000  0.77241000  1
  O  O57  1  0.80864600  0.66081200  0.66047300  1
  O  O58  1  0.29082300  0.65712900  0.54418100  1
  O  O59  1  1.00000000  0.17164000  0.95506000  1
  O  O60  1  0.50000000  0.17164000  0.84126000  1
  O  O61  1  0.00021600  0.15531300  0.72933600  1
  O  O62  1  0.49970000  0.16887900  0.61496600  1
  O  O63  1  0.50000000  0.17164000  0.93115000  1
  O  O64  1  0.00000000  0.17164000  0.81736000  1
  O  O65  1  0.49925800  0.16166500  0.70441600  1
  O  O66  1  0.99876700  0.18351200  0.59529000  1
  O  O67  1  0.00000000  0.50000000  0.95668000  1
  O  O68  1  0.50000000  0.50000000  0.84289000  1
  O  O69  1  0.00049200  0.50002000  0.72830400  1
  O  O70  1  0.50041000  0.48770000  0.61621000  1
  O  O71  1  0.50000000  0.50000000  0.92952000  1
  O  O72  1  0.00000000  0.50000000  0.81573000  1
  O  O73  1  0.49956200  0.49232900  0.70311700  1
  O  O74  1  0.99699600  0.49013700  0.59279800  1
  O  O75  1  0.69034000  1.00000000  0.00000000  1
  O  O76  1  0.19034000  1.00000000  0.88621000  1
  O  O77  1  0.69034000  1.00000000  0.77241000  1
  O  O78  1  0.19310300  0.00794500  0.65779300  1
  O  O79  1  0.74422300  0.02018300  0.52579300  1
  O  O80  1  0.30966000  1.00000000  0.00000000  1
  O  O81  1  0.80966000  1.00000000  0.88621000  1
  O  O82  1  0.30966000  1.00000000  0.77241000  1
  O  O83  1  0.80645300  0.00765500  0.65802300  1
  O  O84  1  0.25277900  0.01583600  0.52678500  1
