# generated using pymatgen
data_MgTiMnVZnCrFeCoCuNiSb20ClO54
_symmetry_space_group_name_H-M   'P 1'
_cell_length_a   6.71974200
_cell_length_b   9.54341100
_cell_length_c   29.02132600
_cell_angle_alpha   89.73142700
_cell_angle_beta   89.99056600
_cell_angle_gamma   89.81646200
_symmetry_Int_Tables_number   1
_chemical_formula_structural   MgTiMnVZnCrFeCoCuNiSb20ClO54
_chemical_formula_sum
'Mg1 Ti1 Mn1 V1 Zn1 Cr1 Fe1 Co1 Cu1 Ni1 Sb20 Cl1 O54'
_cell_volume   1861.08613627
_cell_formula_units_Z   1
loop_
 _symmetry_equiv_pos_site_id
 _symmetry_equiv_pos_as_xyz
  1  'x, y, z'
loop_
 _atom_site_type_symbol
 _atom_site_label
 _atom_site_symmetry_multiplicity
 _atom_site_fract_x
 _atom_site_fract_y
 _atom_site_fract_z
 _atom_site_occupancy
  Mg  Mg0  1  0.50003900  0.33495600  0.34665400  1
  Ti  Ti1  1  0.00000000  0.00000000  0.22759000  1
  Mn  Mn2  1  1.00000000  0.50000000  0.11379000  1
  V  V3  1  0.50000000  0.66768000  0.11379000  1
  Zn  Zn4  1  1.00000000  0.66768000  0.22759000  1
  Cr  Cr5  1  0.50000000  0.00000000  0.11379000  1
  Fe  Fe6  1  0.50000000  0.83232000  0.00000000  1
  Co  Co7  1  0.99054700  0.32516900  0.43887100  1
  Cu  Cu8  1  0.52534300  0.49965600  0.45353800  1
  Ni  Ni9  1  0.00092800  0.97618800  0.44820500  1
  Sb  Sb10  1  0.00000000  0.00000000  0.00000000  1
  Sb  Sb11  1  0.49974500  0.01058100  0.34328700  1
  Sb  Sb12  1  0.50000000  0.50000000  0.00000000  1
  Sb  Sb13  1  0.50000000  0.50000000  0.22759000  1
  Sb  Sb14  1  0.99976800  0.49335600  0.34073000  1
  Sb  Sb15  1  1.00000000  0.66768000  0.00000000  1
  Sb  Sb16  1  0.49991900  0.65487100  0.34256700  1
  Sb  Sb17  1  0.01130600  0.66778900  0.46004100  1
  Sb  Sb18  1  0.50000000  0.16768000  0.00000000  1
  Sb  Sb19  1  0.00000000  0.16768000  0.11379000  1
  Sb  Sb20  1  0.50000000  0.16768000  0.22759000  1
  Sb  Sb21  1  0.99963800  0.17146400  0.34476500  1
  Sb  Sb22  1  0.49100900  0.18988200  0.46180500  1
  Sb  Sb23  1  1.00000000  0.83232000  0.11379000  1
  Sb  Sb24  1  0.50000000  0.83232000  0.22759000  1
  Sb  Sb25  1  0.00130700  0.83087700  0.33923000  1
  Sb  Sb26  1  0.50506300  0.83613200  0.45449400  1
  Sb  Sb27  1  0.00000000  0.33232000  0.00000000  1
  Sb  Sb28  1  0.50000000  0.33232000  0.11379000  1
  Sb  Sb29  1  0.00000000  0.33232000  0.22759000  1
  Cl  Cl30  1  0.51024200  0.43965700  0.52716600  1
  O  O31  1  1.00000000  0.82836000  0.04494000  1
  O  O32  1  0.50000000  0.82836000  0.15874000  1
  O  O33  1  0.99980400  0.84474300  0.27065200  1
  O  O34  1  0.49739200  0.83346700  0.38358100  1
  O  O35  1  0.50000000  0.82836000  0.06885000  1
  O  O36  1  1.00000000  0.82836000  0.18264000  1
  O  O37  1  0.49985800  0.83485400  0.29831800  1
  O  O38  1  0.01405800  0.81694500  0.40755300  1
  O  O39  1  0.30253000  0.32836000  0.00000000  1
  O  O40  1  0.80253000  0.32836000  0.11379000  1
  O  O41  1  0.30253000  0.32836000  0.22759000  1
  O  O42  1  0.80556900  0.33233400  0.33978400  1
  O  O43  1  0.24875600  0.32485900  0.44957400  1
  O  O44  1  0.69747000  0.32836000  0.00000000  1
  O  O45  1  0.19747000  0.32836000  0.11379000  1
  O  O46  1  0.69747000  0.32836000  0.22759000  1
  O  O47  1  0.19416000  0.33214600  0.34000500  1
  O  O48  1  0.72232400  0.33366500  0.44614300  1
  O  O49  1  0.30253000  0.67164000  0.00000000  1
  O  O50  1  0.80253000  0.67164000  0.11379000  1
  O  O51  1  0.30253000  0.67164000  0.22759000  1
  O  O52  1  0.80538000  0.66427000  0.33734800  1
  O  O53  1  0.32497600  0.67283000  0.45632600  1
  O  O54  1  0.69747000  0.67164000  0.00000000  1
  O  O55  1  0.19747000  0.67164000  0.11379000  1
  O  O56  1  0.69747000  0.67164000  0.22759000  1
  O  O57  1  0.19486000  0.66261200  0.33636200  1
  O  O58  1  0.70377800  0.68544000  0.45444100  1
  O  O59  1  0.00000000  0.17164000  0.04494000  1
  O  O60  1  0.50000000  0.17164000  0.15874000  1
  O  O61  1  0.99978400  0.15531300  0.27066400  1
  O  O62  1  0.49424200  0.16127400  0.38889400  1
  O  O63  1  0.50000000  0.17164000  0.06885000  1
  O  O64  1  0.00000000  0.17164000  0.18264000  1
  O  O65  1  0.50104700  0.16723900  0.29688700  1
  O  O66  1  0.98834300  0.14960300  0.41253200  1
  O  O67  1  1.00000000  0.50000000  0.04332000  1
  O  O68  1  0.50000000  0.50000000  0.15711000  1
  O  O69  1  0.99950800  0.50002000  0.27169600  1
  O  O70  1  0.50141800  0.50612900  0.38691800  1
  O  O71  1  0.50000000  0.50000000  0.07048000  1
  O  O72  1  1.00000000  0.50000000  0.18427000  1
  O  O73  1  0.50008200  0.49814700  0.29687000  1
  O  O74  1  0.99910000  0.50960300  0.40954800  1
  O  O75  1  0.30966000  0.00000000  0.00000000  1
  O  O76  1  0.80966000  0.00000000  0.11379000  1
  O  O77  1  0.30966000  0.00000000  0.22759000  1
  O  O78  1  0.80426900  0.99887500  0.34128200  1
  O  O79  1  0.28794100  0.98037500  0.46009500  1
  O  O80  1  0.69034000  0.00000000  0.00000000  1
  O  O81  1  0.19034000  0.00000000  0.11379000  1
  O  O82  1  0.69034000  0.00000000  0.22759000  1
  O  O83  1  0.19584300  0.99972000  0.34056400  1
  O  O84  1  0.71330600  0.98554500  0.45923000  1
