# generated using pymatgen
data_MgTiMnVZnCrFeCoCuNiSb20ClO54
_symmetry_space_group_name_H-M   'P 1'
_cell_length_a   6.75640600
_cell_length_b   9.53919600
_cell_length_c   28.45890300
_cell_angle_alpha   89.96060700
_cell_angle_beta   89.73741900
_cell_angle_gamma   89.97182200
_symmetry_Int_Tables_number   1
_chemical_formula_structural   MgTiMnVZnCrFeCoCuNiSb20ClO54
_chemical_formula_sum
'Mg1 Ti1 Mn1 V1 Zn1 Cr1 Fe1 Co1 Cu1 Ni1 Sb20 Cl1 O54'
_cell_volume   1834.17576714
_cell_formula_units_Z   1
loop_
 _symmetry_equiv_pos_site_id
 _symmetry_equiv_pos_as_xyz
  1  'x, y, z'
loop_
 _atom_site_type_symbol
 _atom_site_label
 _atom_site_symmetry_multiplicity
 _atom_site_fract_x
 _atom_site_fract_y
 _atom_site_fract_z
 _atom_site_occupancy
  Mg  Mg0  1  0.50000000  0.00000000  0.11379000  1
  Ti  Ti1  1  0.50000000  0.50000000  1.00000000  1
  Mn  Mn2  1  0.00000000  0.50000000  0.11379000  1
  V  V3  1  0.99898900  0.49825000  0.33863800  1
  Zn  Zn4  1  0.50000000  0.33232000  0.11379000  1
  Cr  Cr5  1  0.99230500  0.99051800  0.45459000  1
  Fe  Fe6  1  0.00000000  0.66768000  0.22759000  1
  Co  Co7  1  0.50066000  0.00027600  0.34169800  1
  Cu  Cu8  1  0.47942600  0.49374100  0.45403100  1
  Ni  Ni9  1  0.50000000  0.66768000  0.11379000  1
  Sb  Sb10  1  0.00000000  0.00000000  0.00000000  1
  Sb  Sb11  1  0.00000000  0.00000000  0.22759000  1
  Sb  Sb12  1  0.50000000  0.50000000  0.22759000  1
  Sb  Sb13  1  0.00000000  0.33232000  0.00000000  1
  Sb  Sb14  1  0.00000000  0.33232000  0.22759000  1
  Sb  Sb15  1  0.49850100  0.33028700  0.34829200  1
  Sb  Sb16  1  0.99812600  0.33926900  0.46206400  1
  Sb  Sb17  1  0.50000000  0.83232000  1.00000000  1
  Sb  Sb18  1  0.00000000  0.83232000  0.11379000  1
  Sb  Sb19  1  0.50000000  0.83232000  0.22759000  1
  Sb  Sb20  1  0.99867600  0.83259600  0.34186500  1
  Sb  Sb21  1  0.49562900  0.82098800  0.45817000  1
  Sb  Sb22  1  0.50000000  0.16768000  1.00000000  1
  Sb  Sb23  1  0.00000000  0.16768000  0.11379000  1
  Sb  Sb24  1  0.50000000  0.16768000  0.22759000  1
  Sb  Sb25  1  0.99985700  0.16425200  0.34728200  1
  Sb  Sb26  1  0.49575200  0.19182000  0.46107400  1
  Sb  Sb27  1  0.00000000  0.66768000  0.00000000  1
  Sb  Sb28  1  0.49950100  0.67335400  0.34355200  1
  Sb  Sb29  1  0.98982900  0.66147400  0.46311700  1
  Cl  Cl30  1  0.45643000  0.41478400  0.52935200  1
  O  O31  1  0.00000000  0.17164000  0.04494000  1
  O  O32  1  0.50000000  0.17164000  0.15874000  1
  O  O33  1  0.00019600  0.15525700  0.27065200  1
  O  O34  1  0.51070300  0.15290400  0.38813900  1
  O  O35  1  0.50000000  0.17164000  0.06885000  1
  O  O36  1  0.00000000  0.17164000  0.18264000  1
  O  O37  1  0.49862400  0.17084200  0.29789800  1
  O  O38  1  0.98048300  0.14996000  0.42171200  1
  O  O39  1  0.69747000  0.67164000  1.00000000  1
  O  O40  1  0.19747000  0.67164000  0.11379000  1
  O  O41  1  0.69747000  0.67164000  0.22759000  1
  O  O42  1  0.18825300  0.66447400  0.34156200  1
  O  O43  1  0.68699600  0.66602000  0.45349300  1
  O  O44  1  0.30253000  0.67164000  1.00000000  1
  O  O45  1  0.80253000  0.67164000  0.11379000  1
  O  O46  1  0.30253000  0.67164000  0.22759000  1
  O  O47  1  0.80941100  0.66459500  0.34117400  1
  O  O48  1  0.29793500  0.66990000  0.45187500  1
  O  O49  1  0.69747000  0.32836000  1.00000000  1
  O  O50  1  0.19747000  0.32836000  0.11379000  1
  O  O51  1  0.69747000  0.32836000  0.22759000  1
  O  O52  1  0.18792500  0.35029000  0.34014800  1
  O  O53  1  0.69812000  0.33249400  0.44359600  1
  O  O54  1  0.30253000  0.32836000  1.00000000  1
  O  O55  1  0.80253000  0.32836000  0.11379000  1
  O  O56  1  0.30253000  0.32836000  0.22759000  1
  O  O57  1  0.81015800  0.34762800  0.34063400  1
  O  O58  1  0.28491800  0.31772300  0.43551300  1
  O  O59  1  0.00000000  0.82836000  0.04494000  1
  O  O60  1  0.50000000  0.82836000  0.15874000  1
  O  O61  1  0.00021600  0.84468700  0.27066400  1
  O  O62  1  0.50305000  0.83884600  0.38712400  1
  O  O63  1  0.50000000  0.82836000  0.06885000  1
  O  O64  1  0.00000000  0.82836000  0.18264000  1
  O  O65  1  0.49850000  0.83667500  0.29745300  1
  O  O66  1  0.99264600  0.83514500  0.41585900  1
  O  O67  1  0.00000000  0.50000000  0.04332000  1
  O  O68  1  0.50000000  0.50000000  0.15711000  1
  O  O69  1  0.00049200  0.49998000  0.27169600  1
  O  O70  1  0.49695400  0.50850700  0.38662900  1
  O  O71  1  0.50000000  0.50000000  0.07048000  1
  O  O72  1  0.00000000  0.50000000  0.18427000  1
  O  O73  1  0.50124700  0.49832900  0.29810800  1
  O  O74  1  0.99442600  0.50234300  0.41387900  1
  O  O75  1  0.69034000  1.00000000  1.00000000  1
  O  O76  1  0.19034000  0.00000000  0.11379000  1
  O  O77  1  0.69034000  1.00000000  0.22759000  1
  O  O78  1  0.19507900  0.99524900  0.34514100  1
  O  O79  1  0.78997000  0.98984000  0.48591800  1
  O  O80  1  0.30966000  0.00000000  1.00000000  1
  O  O81  1  0.80966000  1.00000000  0.11379000  1
  O  O82  1  0.30966000  0.00000000  0.22759000  1
  O  O83  1  0.80446200  0.99573800  0.34224400  1
  O  O84  1  0.20579300  0.99173800  0.48171000  1
