# generated using pymatgen
data_MgTiMnVZnCrFeCoCuNiSb20ClO54
_symmetry_space_group_name_H-M   'P 1'
_cell_length_a   6.78358400
_cell_length_b   9.62022900
_cell_length_c   29.93180700
_cell_angle_alpha   89.88139000
_cell_angle_beta   89.50902900
_cell_angle_gamma   89.96245100
_symmetry_Int_Tables_number   1
_chemical_formula_structural   MgTiMnVZnCrFeCoCuNiSb20ClO54
_chemical_formula_sum
'Mg1 Ti1 Mn1 V1 Zn1 Cr1 Fe1 Co1 Cu1 Ni1 Sb20 Cl1 O54'
_cell_volume   1953.26239795
_cell_formula_units_Z   1
loop_
 _symmetry_equiv_pos_site_id
 _symmetry_equiv_pos_as_xyz
  1  'x, y, z'
loop_
 _atom_site_type_symbol
 _atom_site_label
 _atom_site_symmetry_multiplicity
 _atom_site_fract_x
 _atom_site_fract_y
 _atom_site_fract_z
 _atom_site_occupancy
  Mg  Mg0  1  0.01998100  0.68005000  0.56207700  1
  Ti  Ti1  1  0.50367700  0.67627400  0.65997800  1
  Mn  Mn2  1  0.94401800  0.32901000  0.56360900  1
  V  V3  1  0.50000000  0.16768000  1.00000000  1
  Zn  Zn4  1  0.55114000  0.14724500  0.55941800  1
  Cr  Cr5  1  0.00338400  0.84082400  0.66249300  1
  Fe  Fe6  1  0.00000000  0.00000000  0.77241000  1
  Co  Co7  1  0.00000000  0.66768000  1.00000000  1
  Cu  Cu8  1  0.54246300  0.50408000  0.55418500  1
  Ni  Ni9  1  0.50155000  0.00059100  0.66498600  1
  Sb  Sb10  1  0.00000000  0.00000000  0.00000000  1
  Sb  Sb11  1  0.50000000  0.00000000  0.88621000  1
  Sb  Sb12  1  0.04094000  0.99688900  0.55061300  1
  Sb  Sb13  1  0.50000000  0.50000000  1.00000000  1
  Sb  Sb14  1  0.00000000  0.50000000  0.88621000  1
  Sb  Sb15  1  0.50000000  0.50000000  0.77241000  1
  Sb  Sb16  1  0.00689900  0.51177300  0.65823800  1
  Sb  Sb17  1  1.00000000  0.33232000  1.00000000  1
  Sb  Sb18  1  0.50000000  0.33232000  0.88621000  1
  Sb  Sb19  1  1.00000000  0.33232000  0.77241000  1
  Sb  Sb20  1  0.50379400  0.33452200  0.65967000  1
  Sb  Sb21  1  0.50000000  0.83232000  1.00000000  1
  Sb  Sb22  1  0.00000000  0.83232000  0.88621000  1
  Sb  Sb23  1  0.50000000  0.83232000  0.77241000  1
  Sb  Sb24  1  0.52294500  0.82910400  0.55562800  1
  Sb  Sb25  1  1.00000000  0.16768000  0.88621000  1
  Sb  Sb26  1  0.50000000  0.16768000  0.77241000  1
  Sb  Sb27  1  0.00338500  0.14895000  0.66278000  1
  Sb  Sb28  1  0.50000000  0.66768000  0.88621000  1
  Sb  Sb29  1  0.00000000  0.66768000  0.77241000  1
  Cl  Cl30  1  0.42327300  0.41689500  0.49396500  1
  O  O31  1  1.00000000  0.17164000  0.95506000  1
  O  O32  1  0.50000000  0.17164000  0.84126000  1
  O  O33  1  0.99980400  0.15525700  0.72934800  1
  O  O34  1  0.49322100  0.16766900  0.62342300  1
  O  O35  1  0.50000000  0.17164000  0.93115000  1
  O  O36  1  1.00000000  0.17164000  0.81736000  1
  O  O37  1  0.50309300  0.17573500  0.70634200  1
  O  O38  1  0.00505400  0.16371500  0.59504000  1
  O  O39  1  0.30253000  0.67164000  1.00000000  1
  O  O40  1  0.80253000  0.67164000  0.88621000  1
  O  O41  1  0.30253000  0.67164000  0.77241000  1
  O  O42  1  0.81248400  0.67156500  0.66142000  1
  O  O43  1  0.30261800  0.71232100  0.54160600  1
  O  O44  1  0.69747000  0.67164000  1.00000000  1
  O  O45  1  0.19747000  0.67164000  0.88621000  1
  O  O46  1  0.69747000  0.67164000  0.77241000  1
  O  O47  1  0.19999800  0.67191700  0.66163000  1
  O  O48  1  0.72133100  0.68302700  0.54816200  1
  O  O49  1  0.30253000  0.32836000  1.00000000  1
  O  O50  1  0.80253000  0.32836000  0.88621000  1
  O  O51  1  0.30253000  0.32836000  0.77241000  1
  O  O52  1  0.81541300  0.33466100  0.66246900  1
  O  O53  1  0.05388100  0.27533400  0.51902300  1
  O  O54  1  0.69747000  0.32836000  1.00000000  1
  O  O55  1  0.19747000  0.32836000  0.88621000  1
  O  O56  1  0.69747000  0.32836000  0.77241000  1
  O  O57  1  0.19155400  0.33439900  0.66351200  1
  O  O58  1  0.69285600  0.32681300  0.56042600  1
  O  O59  1  0.00000000  0.82836000  0.95506000  1
  O  O60  1  0.50000000  0.82836000  0.84126000  1
  O  O61  1  0.99978400  0.84468700  0.72933600  1
  O  O62  1  0.51177700  0.82594300  0.62194800  1
  O  O63  1  0.50000000  0.82836000  0.93115000  1
  O  O64  1  0.00000000  0.82836000  0.81736000  1
  O  O65  1  0.50253000  0.81907300  0.70627800  1
  O  O66  1  0.01311200  0.85124600  0.59805000  1
  O  O67  1  0.00000000  0.50000000  0.95668000  1
  O  O68  1  0.50000000  0.50000000  0.84289000  1
  O  O69  1  0.99950800  0.49998000  0.72830400  1
  O  O70  1  0.50874800  0.50856600  0.62124700  1
  O  O71  1  0.50000000  0.50000000  0.92952000  1
  O  O72  1  0.00000000  0.50000000  0.81573000  1
  O  O73  1  0.50075400  0.49617800  0.70367500  1
  O  O74  1  0.02144700  0.49282000  0.59164000  1
  O  O75  1  0.30966000  0.00000000  1.00000000  1
  O  O76  1  0.80966000  0.00000000  0.88621000  1
  O  O77  1  0.30966000  0.00000000  0.77241000  1
  O  O78  1  0.80802000  0.99399300  0.66357500  1
  O  O79  1  0.34857400  0.00192700  0.55403100  1
  O  O80  1  0.69034000  0.00000000  1.00000000  1
  O  O81  1  0.19034000  0.00000000  0.88621000  1
  O  O82  1  0.69034000  0.00000000  0.77241000  1
  O  O83  1  0.19640600  0.99344700  0.66358700  1
  O  O84  1  0.71603100  0.98071000  0.54402900  1
