# generated using pymatgen
data_MgTiMnVZnCrFeCoCuNiSb20ClO54
_symmetry_space_group_name_H-M   'P 1'
_cell_length_a   6.83957400
_cell_length_b   9.64866100
_cell_length_c   29.93580700
_cell_angle_alpha   89.83400200
_cell_angle_beta   90.53581000
_cell_angle_gamma   89.89162200
_symmetry_Int_Tables_number   1
_chemical_formula_structural   MgTiMnVZnCrFeCoCuNiSb20ClO54
_chemical_formula_sum
'Mg1 Ti1 Mn1 V1 Zn1 Cr1 Fe1 Co1 Cu1 Ni1 Sb20 Cl1 O54'
_cell_volume   1975.44734534
_cell_formula_units_Z   1
loop_
 _symmetry_equiv_pos_site_id
 _symmetry_equiv_pos_as_xyz
  1  'x, y, z'
loop_
 _atom_site_type_symbol
 _atom_site_label
 _atom_site_symmetry_multiplicity
 _atom_site_fract_x
 _atom_site_fract_y
 _atom_site_fract_z
 _atom_site_occupancy
  Mg  Mg0  1  0.00000000  0.50000000  0.88621000  1
  Ti  Ti1  1  0.00499600  0.49388500  0.66109100  1
  Mn  Mn2  1  0.11151400  0.03064700  0.57752600  1
  V  V3  1  0.51767900  0.65050700  0.66388800  1
  Zn  Zn4  1  0.48491400  0.99862700  0.66725200  1
  Cr  Cr5  1  0.46456500  0.81529200  0.56788900  1
  Fe  Fe6  1  1.00000000  0.33232000  0.77241000  1
  Co  Co7  1  0.42313500  0.22444000  0.57207500  1
  Cu  Cu8  1  0.49454200  0.48955400  0.55787900  1
  Ni  Ni9  1  0.48400900  0.32497400  0.66742800  1
  Sb  Sb10  1  0.00000000  0.00000000  0.00000000  1
  Sb  Sb11  1  0.50000000  0.00000000  0.88621000  1
  Sb  Sb12  1  1.00000000  0.00000000  0.77241000  1
  Sb  Sb13  1  0.50000000  0.50000000  0.00000000  1
  Sb  Sb14  1  0.50000000  0.50000000  0.77241000  1
  Sb  Sb15  1  1.00000000  0.33232000  1.00000000  1
  Sb  Sb16  1  0.50000000  0.33232000  0.88621000  1
  Sb  Sb17  1  0.95095400  0.29585800  0.53963900  1
  Sb  Sb18  1  0.50000000  0.83232000  1.00000000  1
  Sb  Sb19  1  0.00000000  0.83232000  0.88621000  1
  Sb  Sb20  1  0.50000000  0.83232000  0.77241000  1
  Sb  Sb21  1  0.98513500  0.83222500  0.65868600  1
  Sb  Sb22  1  0.50000000  0.16768000  1.00000000  1
  Sb  Sb23  1  0.00000000  0.16768000  0.88621000  1
  Sb  Sb24  1  0.50000000  0.16768000  0.77241000  1
  Sb  Sb25  1  0.96019700  0.17726200  0.66391000  1
  Sb  Sb26  1  0.00000000  0.66768000  1.00000000  1
  Sb  Sb27  1  0.50000000  0.66768000  0.88621000  1
  Sb  Sb28  1  1.00000000  0.66768000  0.77241000  1
  Sb  Sb29  1  0.96035300  0.66692400  0.54969900  1
  Cl  Cl30  1  0.67716800  0.54556900  0.49639800  1
  O  O31  1  1.00000000  0.17164000  0.95506000  1
  O  O32  1  0.50000000  0.17164000  0.84126000  1
  O  O33  1  0.99980400  0.15525700  0.72934800  1
  O  O34  1  0.47576100  0.17160900  0.62620300  1
  O  O35  1  0.50000000  0.17164000  0.93115000  1
  O  O36  1  1.00000000  0.17164000  0.81736000  1
  O  O37  1  0.49206600  0.16278700  0.70804200  1
  O  O38  1  0.95752900  0.17926300  0.59812900  1
  O  O39  1  0.30253000  0.67164000  1.00000000  1
  O  O40  1  0.80253000  0.67164000  0.88621000  1
  O  O41  1  0.30253000  0.67164000  0.77241000  1
  O  O42  1  0.78258500  0.67211000  0.66440000  1
  O  O43  1  0.34242900  0.67574700  0.55099300  1
  O  O44  1  0.69747000  0.67164000  1.00000000  1
  O  O45  1  0.19747000  0.67164000  0.88621000  1
  O  O46  1  0.69747000  0.67164000  0.77241000  1
  O  O47  1  0.16168700  0.66462800  0.66301700  1
  O  O48  1  0.68806200  0.79819100  0.54835000  1
  O  O49  1  0.30253000  0.32836000  1.00000000  1
  O  O50  1  0.80253000  0.32836000  0.88621000  1
  O  O51  1  0.30253000  0.32836000  0.77241000  1
  O  O52  1  0.78572500  0.34292800  0.66515400  1
  O  O53  1  0.25074700  0.33721200  0.54577400  1
  O  O54  1  0.69747000  0.32836000  1.00000000  1
  O  O55  1  0.19747000  0.32836000  0.88621000  1
  O  O56  1  0.69747000  0.32836000  0.77241000  1
  O  O57  1  0.16712600  0.33759600  0.66229100  1
  O  O58  1  0.63853300  0.30400200  0.55484300  1
  O  O59  1  1.00000000  0.82836000  0.95506000  1
  O  O60  1  0.50000000  0.82836000  0.84126000  1
  O  O61  1  0.99978400  0.84468700  0.72933600  1
  O  O62  1  0.47280000  0.81185900  0.62490000  1
  O  O63  1  0.50000000  0.82836000  0.93115000  1
  O  O64  1  1.00000000  0.82836000  0.81736000  1
  O  O65  1  0.48324500  0.82231100  0.70656300  1
  O  O66  1  0.00806000  0.83186000  0.59242000  1
  O  O67  1  0.00000000  0.50000000  0.95668000  1
  O  O68  1  0.50000000  0.50000000  0.84289000  1
  O  O69  1  0.99950800  0.49998000  0.72830400  1
  O  O70  1  0.49170800  0.53565100  0.62191800  1
  O  O71  1  0.50000000  0.50000000  0.92952000  1
  O  O72  1  0.00000000  0.50000000  0.81573000  1
  O  O73  1  0.48206100  0.51051500  0.70445300  1
  O  O74  1  0.95376000  0.51920200  0.59639100  1
  O  O75  1  0.30966000  1.00000000  0.00000000  1
  O  O76  1  0.80966000  0.00000000  0.88621000  1
  O  O77  1  0.30966000  0.00000000  0.77241000  1
  O  O78  1  0.79348000  0.99601800  0.66358900  1
  O  O79  1  0.35578700  0.96711400  0.55501200  1
  O  O80  1  0.69034000  0.00000000  1.00000000  1
  O  O81  1  0.19034000  0.00000000  0.88621000  1
  O  O82  1  0.69034000  0.00000000  0.77241000  1
  O  O83  1  0.16344200  0.00745700  0.64907000  1
  O  O84  1  0.01893800  0.09142800  0.52508500  1
