# generated using pymatgen
data_MgTiMnVZnCrFeCoCuNiSb20ClO54
_symmetry_space_group_name_H-M   'P 1'
_cell_length_a   6.68295200
_cell_length_b   9.55437400
_cell_length_c   28.90103500
_cell_angle_alpha   90.20390900
_cell_angle_beta   89.60993100
_cell_angle_gamma   89.95197800
_symmetry_Int_Tables_number   1
_chemical_formula_structural   MgTiMnVZnCrFeCoCuNiSb20ClO54
_chemical_formula_sum
'Mg1 Ti1 Mn1 V1 Zn1 Cr1 Fe1 Co1 Cu1 Ni1 Sb20 Cl1 O54'
_cell_volume   1845.31706858
_cell_formula_units_Z   1
loop_
 _symmetry_equiv_pos_site_id
 _symmetry_equiv_pos_as_xyz
  1  'x, y, z'
loop_
 _atom_site_type_symbol
 _atom_site_label
 _atom_site_symmetry_multiplicity
 _atom_site_fract_x
 _atom_site_fract_y
 _atom_site_fract_z
 _atom_site_occupancy
  Mg  Mg0  1  0.00180600  0.49890100  0.65567500  1
  Ti  Ti1  1  0.51236800  0.15635000  0.55208700  1
  Mn  Mn2  1  0.51540100  0.83434100  0.55274800  1
  V  V3  1  1.00000000  0.66768000  0.77241000  1
  Zn  Zn4  1  0.50000000  0.66768000  0.88621000  1
  Cr  Cr5  1  0.00000000  0.16768000  0.88621000  1
  Fe  Fe6  1  1.00000000  0.66768000  1.00000000  1
  Co  Co7  1  0.50532900  0.99808000  0.66186700  1
  Cu  Cu8  1  0.41382600  0.49099400  0.54570000  1
  Ni  Ni9  1  0.00000000  0.83232000  0.88621000  1
  Sb  Sb10  1  0.00000000  0.00000000  0.00000000  1
  Sb  Sb11  1  0.50000000  1.00000000  0.88621000  1
  Sb  Sb12  1  1.00000000  1.00000000  0.77241000  1
  Sb  Sb13  1  0.01144500  0.99763000  0.53857200  1
  Sb  Sb14  1  0.50000000  0.50000000  1.00000000  1
  Sb  Sb15  1  1.00000000  0.50000000  0.88621000  1
  Sb  Sb16  1  0.50000000  0.50000000  0.77241000  1
  Sb  Sb17  1  0.50210100  0.67121400  0.65277800  1
  Sb  Sb18  1  0.01069600  0.67061200  0.53858500  1
  Sb  Sb19  1  0.50000000  0.16768000  1.00000000  1
  Sb  Sb20  1  0.50000000  0.16768000  0.77241000  1
  Sb  Sb21  1  0.00377100  0.16396200  0.65420600  1
  Sb  Sb22  1  0.50000000  0.83232000  1.00000000  1
  Sb  Sb23  1  0.50000000  0.83232000  0.77241000  1
  Sb  Sb24  1  0.00199100  0.83267600  0.65808700  1
  Sb  Sb25  1  1.00000000  0.33232000  1.00000000  1
  Sb  Sb26  1  0.50000000  0.33232000  0.88621000  1
  Sb  Sb27  1  1.00000000  0.33232000  0.77241000  1
  Sb  Sb28  1  0.50369300  0.32651200  0.65498700  1
  Sb  Sb29  1  0.00452200  0.33356400  0.53313400  1
  Cl  Cl30  1  0.34739200  0.50455900  0.47208900  1
  O  O31  1  1.00000000  0.82836000  0.95506000  1
  O  O32  1  0.50000000  0.82836000  0.84126000  1
  O  O33  1  0.00019600  0.84474300  0.72934800  1
  O  O34  1  0.51826500  0.84799900  0.61608000  1
  O  O35  1  0.50000000  0.82836000  0.93115000  1
  O  O36  1  1.00000000  0.82836000  0.81736000  1
  O  O37  1  0.50192700  0.83074900  0.70342000  1
  O  O38  1  0.00706300  0.84079200  0.58747400  1
  O  O39  1  0.69747000  0.32836000  1.00000000  1
  O  O40  1  0.19747000  0.32836000  0.88621000  1
  O  O41  1  0.69747000  0.32836000  0.77241000  1
  O  O42  1  0.19713100  0.32352700  0.65714400  1
  O  O43  1  0.70290700  0.28749200  0.54081500  1
  O  O44  1  0.30253000  0.32836000  1.00000000  1
  O  O45  1  0.80253000  0.32836000  0.88621000  1
  O  O46  1  0.30253000  0.32836000  0.77241000  1
  O  O47  1  0.80947200  0.32403300  0.65802400  1
  O  O48  1  0.30940800  0.29068200  0.54608700  1
  O  O49  1  0.69747000  0.67164000  1.00000000  1
  O  O50  1  0.19747000  0.67164000  0.88621000  1
  O  O51  1  0.69747000  0.67164000  0.77241000  1
  O  O52  1  0.19522300  0.67307000  0.65743500  1
  O  O53  1  0.70687300  0.70389800  0.54336800  1
  O  O54  1  0.30253000  0.67164000  1.00000000  1
  O  O55  1  0.80253000  0.67164000  0.88621000  1
  O  O56  1  0.30253000  0.67164000  0.77241000  1
  O  O57  1  0.80870300  0.67220800  0.65709800  1
  O  O58  1  0.33023300  0.69250000  0.55543900  1
  O  O59  1  0.00000000  0.17164000  0.95506000  1
  O  O60  1  0.50000000  0.17164000  0.84126000  1
  O  O61  1  0.00021600  0.15531300  0.72933600  1
  O  O62  1  0.51309100  0.15577900  0.61652200  1
  O  O63  1  0.50000000  0.17164000  0.93115000  1
  O  O64  1  1.00000000  0.17164000  0.81736000  1
  O  O65  1  0.49991000  0.17011200  0.70356000  1
  O  O66  1  0.00134300  0.16078000  0.58482100  1
  O  O67  1  1.00000000  0.50000000  0.95668000  1
  O  O68  1  0.50000000  0.50000000  0.84289000  1
  O  O69  1  0.00049200  0.50002000  0.72830400  1
  O  O70  1  0.50079300  0.49110100  0.61113400  1
  O  O71  1  0.50000000  0.50000000  0.92952000  1
  O  O72  1  0.00000000  0.50000000  0.81573000  1
  O  O73  1  0.50255400  0.49582400  0.70004200  1
  O  O74  1  0.00602000  0.49599200  0.58015200  1
  O  O75  1  0.69034000  0.00000000  1.00000000  1
  O  O76  1  0.19034000  1.00000000  0.88621000  1
  O  O77  1  0.69034000  1.00000000  0.77241000  1
  O  O78  1  0.19746600  0.99994300  0.65891100  1
  O  O79  1  0.69000500  0.99135200  0.54321000  1
  O  O80  1  0.30966000  0.00000000  0.00000000  1
  O  O81  1  0.80966000  1.00000000  0.88621000  1
  O  O82  1  0.30966000  1.00000000  0.77241000  1
  O  O83  1  0.80951500  0.00068100  0.65980500  1
  O  O84  1  0.32610600  0.98797200  0.54232300  1
