# generated using pymatgen
data_MgTiMnVZnCrFeCoCuNiSb20ClO54
_symmetry_space_group_name_H-M   'P 1'
_cell_length_a   6.66011800
_cell_length_b   9.55843400
_cell_length_c   29.44180700
_cell_angle_alpha   89.98546300
_cell_angle_beta   89.97222000
_cell_angle_gamma   89.99988800
_symmetry_Int_Tables_number   1
_chemical_formula_structural   MgTiMnVZnCrFeCoCuNiSb20ClO54
_chemical_formula_sum
'Mg1 Ti1 Mn1 V1 Zn1 Cr1 Fe1 Co1 Cu1 Ni1 Sb20 Cl1 O54'
_cell_volume   1874.27393651
_cell_formula_units_Z   1
loop_
 _symmetry_equiv_pos_site_id
 _symmetry_equiv_pos_as_xyz
  1  'x, y, z'
loop_
 _atom_site_type_symbol
 _atom_site_label
 _atom_site_symmetry_multiplicity
 _atom_site_fract_x
 _atom_site_fract_y
 _atom_site_fract_z
 _atom_site_occupancy
  Mg  Mg0  1  0.50092800  0.83454900  0.54887400  1
  Ti  Ti1  1  0.50000000  0.66768000  0.88621000  1
  Mn  Mn2  1  0.00000000  0.33232000  0.00000000  1
  V  V3  1  0.00013600  0.17991900  0.65561600  1
  Zn  Zn4  1  0.50000000  0.83232000  0.77241000  1
  Cr  Cr5  1  0.50000000  0.33232000  0.88621000  1
  Fe  Fe6  1  0.50000000  0.83232000  1.00000000  1
  Co  Co7  1  0.50029000  0.33483600  0.65939600  1
  Cu  Cu8  1  0.49519100  0.50941800  0.55025900  1
  Ni  Ni9  1  0.99833300  0.01786700  0.55247900  1
  Sb  Sb10  1  0.00000000  0.00000000  0.00000000  1
  Sb  Sb11  1  0.50000000  0.00000000  0.88621000  1
  Sb  Sb12  1  0.00000000  0.00000000  0.77241000  1
  Sb  Sb13  1  0.50142200  0.99957000  0.66258200  1
  Sb  Sb14  1  0.50000000  0.50000000  1.00000000  1
  Sb  Sb15  1  0.00000000  0.50000000  0.88621000  1
  Sb  Sb16  1  0.50000000  0.50000000  0.77241000  1
  Sb  Sb17  1  0.99948800  0.48981200  0.65011000  1
  Sb  Sb18  1  0.00000000  0.66768000  0.00000000  1
  Sb  Sb19  1  0.00000000  0.66768000  0.77241000  1
  Sb  Sb20  1  0.50079700  0.66970900  0.65788800  1
  Sb  Sb21  1  0.99926500  0.68622400  0.54153800  1
  Sb  Sb22  1  0.50000000  0.16768000  1.00000000  1
  Sb  Sb23  1  0.00000000  0.16768000  0.88621000  1
  Sb  Sb24  1  0.50000000  0.16768000  0.77241000  1
  Sb  Sb25  1  0.49866100  0.15994600  0.55320700  1
  Sb  Sb26  1  0.00000000  0.83232000  0.88621000  1
  Sb  Sb27  1  0.00041900  0.84488100  0.65697200  1
  Sb  Sb28  1  0.00000000  0.33232000  0.77241000  1
  Sb  Sb29  1  0.99943400  0.30660400  0.53741200  1
  Cl  Cl30  1  0.47281100  0.48207000  0.47530100  1
  O  O31  1  0.00000000  0.82836000  0.95506000  1
  O  O32  1  0.50000000  0.82836000  0.84126000  1
  O  O33  1  0.00019600  0.84474300  0.72934800  1
  O  O34  1  0.50484200  0.84224900  0.61762000  1
  O  O35  1  0.50000000  0.82836000  0.93115000  1
  O  O36  1  0.00000000  0.82836000  0.81736000  1
  O  O37  1  0.49922100  0.83254200  0.70354500  1
  O  O38  1  0.99287700  0.84154200  0.59060000  1
  O  O39  1  0.69747000  0.32836000  0.00000000  1
  O  O40  1  0.19747000  0.32836000  0.88621000  1
  O  O41  1  0.69747000  0.32836000  0.77241000  1
  O  O42  1  0.19412600  0.30798500  0.66098100  1
  O  O43  1  0.69119300  0.31796300  0.55189000  1
  O  O44  1  0.30253000  0.32836000  1.00000000  1
  O  O45  1  0.80253000  0.32836000  0.88621000  1
  O  O46  1  0.30253000  0.32836000  0.77241000  1
  O  O47  1  0.80671200  0.30814100  0.66161400  1
  O  O48  1  0.30348000  0.31626000  0.55472800  1
  O  O49  1  0.69747000  0.67164000  0.00000000  1
  O  O50  1  0.19747000  0.67164000  0.88621000  1
  O  O51  1  0.69747000  0.67164000  0.77241000  1
  O  O52  1  0.19445100  0.68230800  0.66151000  1
  O  O53  1  0.69784200  0.67133700  0.54555700  1
  O  O54  1  0.30253000  0.67164000  1.00000000  1
  O  O55  1  0.80253000  0.67164000  0.88621000  1
  O  O56  1  0.30253000  0.67164000  0.77241000  1
  O  O57  1  0.80681200  0.68171500  0.66257200  1
  O  O58  1  0.29996700  0.67354300  0.54952700  1
  O  O59  1  0.00000000  0.17164000  0.95506000  1
  O  O60  1  0.50000000  0.17164000  0.84126000  1
  O  O61  1  0.00021600  0.15531300  0.72933600  1
  O  O62  1  0.50525100  0.15748700  0.62009600  1
  O  O63  1  0.50000000  0.17164000  0.93115000  1
  O  O64  1  0.00000000  0.17164000  0.81736000  1
  O  O65  1  0.49985700  0.16589800  0.70490100  1
  O  O66  1  0.99671000  0.17022400  0.59627100  1
  O  O67  1  0.00000000  0.50000000  0.95668000  1
  O  O68  1  0.50000000  0.50000000  0.84289000  1
  O  O69  1  0.00049200  0.50002000  0.72830400  1
  O  O70  1  0.50479600  0.50600600  0.61788800  1
  O  O71  1  0.50000000  0.50000000  0.92952000  1
  O  O72  1  0.00000000  0.50000000  0.81573000  1
  O  O73  1  0.49855000  0.50386100  0.70343900  1
  O  O74  1  0.99735000  0.49059100  0.57462500  1
  O  O75  1  0.69034000  1.00000000  0.00000000  1
  O  O76  1  0.19034000  0.00000000  0.88621000  1
  O  O77  1  0.69034000  1.00000000  0.77241000  1
  O  O78  1  0.19258700  0.00679200  0.66203400  1
  O  O79  1  0.70236900  0.01049400  0.54153100  1
  O  O80  1  0.30966000  0.00000000  1.00000000  1
  O  O81  1  0.80966000  1.00000000  0.88621000  1
  O  O82  1  0.30966000  0.00000000  0.77241000  1
  O  O83  1  0.80980300  0.00697800  0.66313000  1
  O  O84  1  0.29484700  0.00963600  0.54251700  1
