# generated using pymatgen
data_MgTiMnVZnCrFeCoCuNiSb20ClO54
_symmetry_space_group_name_H-M   'P 1'
_cell_length_a   6.65802500
_cell_length_b   9.56534400
_cell_length_c   29.03073400
_cell_angle_alpha   90.18625300
_cell_angle_beta   89.92313800
_cell_angle_gamma   89.92099200
_symmetry_Int_Tables_number   1
_chemical_formula_structural   MgTiMnVZnCrFeCoCuNiSb20ClO54
_chemical_formula_sum
'Mg1 Ti1 Mn1 V1 Zn1 Cr1 Fe1 Co1 Cu1 Ni1 Sb20 Cl1 O54'
_cell_volume   1848.84681860
_cell_formula_units_Z   1
loop_
 _symmetry_equiv_pos_site_id
 _symmetry_equiv_pos_as_xyz
  1  'x, y, z'
loop_
 _atom_site_type_symbol
 _atom_site_label
 _atom_site_symmetry_multiplicity
 _atom_site_fract_x
 _atom_site_fract_y
 _atom_site_fract_z
 _atom_site_occupancy
  Mg  Mg0  1  0.00092400  0.49168000  0.65778600  1
  Ti  Ti1  1  0.49668000  0.00518400  0.65705400  1
  Mn  Mn2  1  0.99671100  0.17648800  0.66283300  1
  V  V3  1  0.50000000  0.83232000  0.77241000  1
  Zn  Zn4  1  0.50000000  0.66768000  0.88621000  1
  Cr  Cr5  1  0.50000000  0.16768000  1.00000000  1
  Fe  Fe6  1  0.00000000  0.16768000  0.88621000  1
  Co  Co7  1  0.00000000  0.33232000  1.00000000  1
  Cu  Cu8  1  0.51354600  0.50529000  0.54965300  1
  Ni  Ni9  1  0.50000000  0.50000000  1.00000000  1
  Sb  Sb10  1  0.00000000  0.00000000  0.00000000  1
  Sb  Sb11  1  0.50000000  1.00000000  0.88621000  1
  Sb  Sb12  1  1.00000000  1.00000000  0.77241000  1
  Sb  Sb13  1  0.99673100  0.00720300  0.56283100  1
  Sb  Sb14  1  1.00000000  0.50000000  0.88621000  1
  Sb  Sb15  1  0.50000000  0.50000000  0.77241000  1
  Sb  Sb16  1  0.50000000  0.33232000  0.88621000  1
  Sb  Sb17  1  0.00000000  0.33232000  0.77241000  1
  Sb  Sb18  1  0.50307500  0.32930400  0.64364000  1
  Sb  Sb19  1  0.98872300  0.33608400  0.54675300  1
  Sb  Sb20  1  0.50000000  0.83232000  1.00000000  1
  Sb  Sb21  1  0.00000000  0.83232000  0.88621000  1
  Sb  Sb22  1  0.00142300  0.83345900  0.65893300  1
  Sb  Sb23  1  0.50102100  0.82877000  0.54430800  1
  Sb  Sb24  1  0.50000000  0.16768000  0.77241000  1
  Sb  Sb25  1  0.48693600  0.19421300  0.53460600  1
  Sb  Sb26  1  0.00000000  0.66768000  1.00000000  1
  Sb  Sb27  1  0.00000000  0.66768000  0.77241000  1
  Sb  Sb28  1  0.49962100  0.67719900  0.66201100  1
  Sb  Sb29  1  0.00944000  0.65222500  0.53474700  1
  Cl  Cl30  1  0.52440600  0.43278800  0.47530000  1
  O  O31  1  1.00000000  0.17164000  0.95506000  1
  O  O32  1  0.50000000  0.17164000  0.84126000  1
  O  O33  1  0.99980400  0.15525700  0.72934800  1
  O  O34  1  0.49650700  0.11530600  0.60649200  1
  O  O35  1  0.50000000  0.17164000  0.93115000  1
  O  O36  1  1.00000000  0.17164000  0.81736000  1
  O  O37  1  0.50125800  0.14688500  0.70255300  1
  O  O38  1  0.97705400  0.18065000  0.59754500  1
  O  O39  1  0.30253000  0.67164000  1.00000000  1
  O  O40  1  0.80253000  0.67164000  0.88621000  1
  O  O41  1  0.30253000  0.67164000  0.77241000  1
  O  O42  1  0.80651500  0.67625500  0.66233400  1
  O  O43  1  0.31870400  0.65967900  0.54255000  1
  O  O44  1  0.69747000  0.67164000  1.00000000  1
  O  O45  1  0.19747000  0.67164000  0.88621000  1
  O  O46  1  0.69747000  0.67164000  0.77241000  1
  O  O47  1  0.19227100  0.67524200  0.66427000  1
  O  O48  1  0.71437100  0.68789200  0.54892900  1
  O  O49  1  0.30253000  0.32836000  1.00000000  1
  O  O50  1  0.80253000  0.32836000  0.88621000  1
  O  O51  1  0.30253000  0.32836000  0.77241000  1
  O  O52  1  0.81271100  0.31699300  0.66527100  1
  O  O53  1  0.28689000  0.32344600  0.56421900  1
  O  O54  1  0.69747000  0.32836000  1.00000000  1
  O  O55  1  0.19747000  0.32836000  0.88621000  1
  O  O56  1  0.69747000  0.32836000  0.77241000  1
  O  O57  1  0.18140700  0.31209800  0.66405200  1
  O  O58  1  0.67707100  0.33642100  0.56793300  1
  O  O59  1  1.00000000  0.82836000  0.95506000  1
  O  O60  1  0.50000000  0.82836000  0.84126000  1
  O  O61  1  0.99978400  0.84468700  0.72933600  1
  O  O62  1  0.49309500  0.83543000  0.61634700  1
  O  O63  1  0.50000000  0.82836000  0.93115000  1
  O  O64  1  1.00000000  0.82836000  0.81736000  1
  O  O65  1  0.49890200  0.83916700  0.70570300  1
  O  O66  1  0.03576200  0.81851700  0.58877800  1
  O  O67  1  1.00000000  0.50000000  0.95668000  1
  O  O68  1  0.50000000  0.50000000  0.84289000  1
  O  O69  1  0.99950800  0.49998000  0.72830400  1
  O  O70  1  0.49509900  0.53160600  0.61572100  1
  O  O71  1  0.50000000  0.50000000  0.92952000  1
  O  O72  1  0.00000000  0.50000000  0.81573000  1
  O  O73  1  0.50094000  0.50596900  0.70332500  1
  O  O74  1  0.99730500  0.50913200  0.58625300  1
  O  O75  1  0.30966000  0.00000000  1.00000000  1
  O  O76  1  0.80966000  1.00000000  0.88621000  1
  O  O77  1  0.30966000  0.00000000  0.77241000  1
  O  O78  1  0.80751800  0.99266400  0.65432000  1
  O  O79  1  0.22623600  0.03610700  0.52607800  1
  O  O80  1  0.69034000  1.00000000  1.00000000  1
  O  O81  1  0.19034000  0.00000000  0.88621000  1
  O  O82  1  0.69034000  1.00000000  0.77241000  1
  O  O83  1  0.18724100  0.99974300  0.65618600  1
  O  O84  1  0.75191200  0.00136600  0.53101200  1
