# generated using pymatgen
data_MgTiMnVZnCrFeCoCuNiSb20ClO54
_symmetry_space_group_name_H-M   'P 1'
_cell_length_a   6.68405100
_cell_length_b   9.57462700
_cell_length_c   29.01093500
_cell_angle_alpha   90.35370500
_cell_angle_beta   89.97549900
_cell_angle_gamma   89.97817600
_symmetry_Int_Tables_number   1
_chemical_formula_structural   MgTiMnVZnCrFeCoCuNiSb20ClO54
_chemical_formula_sum
'Mg1 Ti1 Mn1 V1 Zn1 Cr1 Fe1 Co1 Cu1 Ni1 Sb20 Cl1 O54'
_cell_volume   1856.58568650
_cell_formula_units_Z   1
loop_
 _symmetry_equiv_pos_site_id
 _symmetry_equiv_pos_as_xyz
  1  'x, y, z'
loop_
 _atom_site_type_symbol
 _atom_site_label
 _atom_site_symmetry_multiplicity
 _atom_site_fract_x
 _atom_site_fract_y
 _atom_site_fract_z
 _atom_site_occupancy
  Mg  Mg0  1  0.00121700  0.33658600  0.56077200  1
  Ti  Ti1  1  0.50000000  0.83232000  0.77241000  1
  Mn  Mn2  1  0.00032100  0.50043800  0.66300100  1
  V  V3  1  0.00000000  1.00000000  0.77241000  1
  Zn  Zn4  1  0.00000000  0.33232000  0.77241000  1
  Cr  Cr5  1  0.50000000  0.66768000  0.88621000  1
  Fe  Fe6  1  0.00000000  0.83232000  0.88621000  1
  Co  Co7  1  0.00280600  0.65130100  0.56078600  1
  Cu  Cu8  1  0.50207100  0.49336400  0.54569200  1
  Ni  Ni9  1  0.50000000  0.16768000  0.77241000  1
  Sb  Sb10  1  0.00000000  0.00000000  0.00000000  1
  Sb  Sb11  1  0.50000000  0.00000000  0.88621000  1
  Sb  Sb12  1  0.50089600  0.99840300  0.65852900  1
  Sb  Sb13  1  0.00244000  0.99844800  0.54379900  1
  Sb  Sb14  1  0.50000000  0.50000000  0.00000000  1
  Sb  Sb15  1  0.00000000  0.50000000  0.88621000  1
  Sb  Sb16  1  0.50000000  0.50000000  0.77241000  1
  Sb  Sb17  1  0.00000000  0.33232000  0.00000000  1
  Sb  Sb18  1  0.50000000  0.33232000  0.88621000  1
  Sb  Sb19  1  0.50060200  0.32706800  0.65946400  1
  Sb  Sb20  1  0.50000000  0.83232000  0.00000000  1
  Sb  Sb21  1  0.00117900  0.82851900  0.65906300  1
  Sb  Sb22  1  0.50326600  0.79688100  0.53715500  1
  Sb  Sb23  1  0.50000000  0.16768000  0.00000000  1
  Sb  Sb24  1  0.00000000  0.16768000  0.88621000  1
  Sb  Sb25  1  0.00100400  0.16943100  0.66292500  1
  Sb  Sb26  1  0.50056800  0.19174600  0.53406900  1
  Sb  Sb27  1  1.00000000  0.66768000  0.00000000  1
  Sb  Sb28  1  0.00000000  0.66768000  0.77241000  1
  Sb  Sb29  1  0.50090800  0.66469100  0.65549500  1
  Cl  Cl30  1  0.50273000  0.75755900  0.45664000  1
  O  O31  1  0.00000000  0.17164000  0.95506000  1
  O  O32  1  0.50000000  0.17164000  0.84126000  1
  O  O33  1  0.99980400  0.15525700  0.72934800  1
  O  O34  1  0.49983600  0.16239400  0.61176900  1
  O  O35  1  0.50000000  0.17164000  0.93115000  1
  O  O36  1  0.00000000  0.17164000  0.81736000  1
  O  O37  1  0.50035800  0.16095300  0.70265600  1
  O  O38  1  0.00333200  0.15388800  0.59463500  1
  O  O39  1  0.30253000  0.67164000  1.00000000  1
  O  O40  1  0.80253000  0.67164000  0.88621000  1
  O  O41  1  0.30253000  0.67164000  0.77241000  1
  O  O42  1  0.80322800  0.67264600  0.66227700  1
  O  O43  1  0.29629100  0.64846500  0.54902500  1
  O  O44  1  0.69747000  0.67164000  0.00000000  1
  O  O45  1  0.19747000  0.67164000  0.88621000  1
  O  O46  1  0.69747000  0.67164000  0.77241000  1
  O  O47  1  0.19879900  0.67269900  0.66281900  1
  O  O48  1  0.71190400  0.64841300  0.54877100  1
  O  O49  1  0.30253000  0.32836000  1.00000000  1
  O  O50  1  0.80253000  0.32836000  0.88621000  1
  O  O51  1  0.30253000  0.32836000  0.77241000  1
  O  O52  1  0.80403500  0.32756300  0.66153700  1
  O  O53  1  0.29229400  0.33863200  0.54028100  1
  O  O54  1  0.69747000  0.32836000  0.00000000  1
  O  O55  1  0.19747000  0.32836000  0.88621000  1
  O  O56  1  0.69747000  0.32836000  0.77241000  1
  O  O57  1  0.19721400  0.32837400  0.66146700  1
  O  O58  1  0.70971700  0.33868100  0.54085200  1
  O  O59  1  0.00000000  0.82836000  0.95506000  1
  O  O60  1  0.50000000  0.82836000  0.84126000  1
  O  O61  1  0.99978400  0.84468700  0.72933600  1
  O  O62  1  0.50079300  0.83193000  0.61335400  1
  O  O63  1  0.50000000  0.82836000  0.93115000  1
  O  O64  1  0.00000000  0.82836000  0.81736000  1
  O  O65  1  0.50052800  0.82966900  0.70206300  1
  O  O66  1  0.00333500  0.83724300  0.59116900  1
  O  O67  1  1.00000000  0.50000000  0.95668000  1
  O  O68  1  0.50000000  0.50000000  0.84289000  1
  O  O69  1  0.99950800  0.49998000  0.72830400  1
  O  O70  1  0.50156100  0.49031600  0.61703300  1
  O  O71  1  0.50000000  0.50000000  0.92952000  1
  O  O72  1  0.00000000  0.50000000  0.81573000  1
  O  O73  1  0.49999200  0.50440200  0.70256600  1
  O  O74  1  0.00147200  0.49991900  0.60025400  1
  O  O75  1  0.30966000  1.00000000  1.00000000  1
  O  O76  1  0.80966000  0.00000000  0.88621000  1
  O  O77  1  0.30966000  1.00000000  0.77241000  1
  O  O78  1  0.80660700  0.99610400  0.65993900  1
  O  O79  1  0.29980300  0.94738100  0.53710200  1
  O  O80  1  0.69034000  0.00000000  0.00000000  1
  O  O81  1  0.19034000  1.00000000  0.88621000  1
  O  O82  1  0.69034000  0.00000000  0.77241000  1
  O  O83  1  0.19578200  0.99608400  0.66042200  1
  O  O84  1  0.70433300  0.94774400  0.53721900  1
