# generated using pymatgen
data_MgTiMnVZnCrFeCoCuNiSb20ClO54
_symmetry_space_group_name_H-M   'P 1'
_cell_length_a   6.70867500
_cell_length_b   9.43786200
_cell_length_c   29.53192700
_cell_angle_alpha   90.04419500
_cell_angle_beta   89.96218800
_cell_angle_gamma   89.98118200
_symmetry_Int_Tables_number   1
_chemical_formula_structural   MgTiMnVZnCrFeCoCuNiSb20ClO54
_chemical_formula_sum
'Mg1 Ti1 Mn1 V1 Zn1 Cr1 Fe1 Co1 Cu1 Ni1 Sb20 Cl1 O54'
_cell_volume   1869.82910209
_cell_formula_units_Z   1
loop_
 _symmetry_equiv_pos_site_id
 _symmetry_equiv_pos_as_xyz
  1  'x, y, z'
loop_
 _atom_site_type_symbol
 _atom_site_label
 _atom_site_symmetry_multiplicity
 _atom_site_fract_x
 _atom_site_fract_y
 _atom_site_fract_z
 _atom_site_occupancy
  Mg  Mg0  1  0.00000000  0.50000000  0.11379000  1
  Ti  Ti1  1  0.50000000  0.50000000  0.00000000  1
  Mn  Mn2  1  0.50000000  0.16768000  0.00000000  1
  V  V3  1  0.49795100  0.99829000  0.34038700  1
  Zn  Zn4  1  0.49876100  0.65748500  0.34013100  1
  Cr  Cr5  1  0.50000000  0.00000000  0.11379000  1
  Fe  Fe6  1  0.99749100  0.32627300  0.44544800  1
  Co  Co7  1  0.49897400  0.32926800  0.33498000  1
  Cu  Cu8  1  0.49967100  0.49006900  0.43843200  1
  Ni  Ni9  1  1.00000000  0.33232000  0.22759000  1
  Sb  Sb10  1  0.00000000  0.00000000  0.00000000  1
  Sb  Sb11  1  1.00000000  1.00000000  0.22759000  1
  Sb  Sb12  1  0.99888700  0.01092900  0.45841900  1
  Sb  Sb13  1  0.50000000  0.50000000  0.22759000  1
  Sb  Sb14  1  0.99874900  0.49831900  0.33837900  1
  Sb  Sb15  1  1.00000000  0.33232000  0.00000000  1
  Sb  Sb16  1  0.50000000  0.33232000  0.11379000  1
  Sb  Sb17  1  0.50000000  0.83232000  0.00000000  1
  Sb  Sb18  1  0.00000000  0.83232000  0.11379000  1
  Sb  Sb19  1  0.50000000  0.83232000  0.22759000  1
  Sb  Sb20  1  0.99894000  0.83133000  0.34335700  1
  Sb  Sb21  1  0.49968300  0.80727500  0.44848900  1
  Sb  Sb22  1  1.00000000  0.16768000  0.11379000  1
  Sb  Sb23  1  0.50000000  0.16768000  0.22759000  1
  Sb  Sb24  1  0.99788800  0.16622700  0.33836200  1
  Sb  Sb25  1  0.49725100  0.18375600  0.45116300  1
  Sb  Sb26  1  0.00000000  0.66768000  0.00000000  1
  Sb  Sb27  1  0.50000000  0.66768000  0.11379000  1
  Sb  Sb28  1  1.00000000  0.66768000  0.22759000  1
  Sb  Sb29  1  0.99900800  0.65334100  0.45194500  1
  Cl  Cl30  1  0.49997700  0.74263600  0.52677900  1
  O  O31  1  0.00000000  0.17164000  0.04494000  1
  O  O32  1  0.50000000  0.17164000  0.15874000  1
  O  O33  1  0.00019600  0.15525700  0.27065200  1
  O  O34  1  0.49731000  0.15366000  0.38089000  1
  O  O35  1  0.50000000  0.17164000  0.06885000  1
  O  O36  1  0.00000000  0.17164000  0.18264000  1
  O  O37  1  0.49960100  0.15604100  0.29610300  1
  O  O38  1  0.99752600  0.15471000  0.40627700  1
  O  O39  1  0.69747000  0.67164000  0.00000000  1
  O  O40  1  0.19747000  0.67164000  0.11379000  1
  O  O41  1  0.69747000  0.67164000  0.22759000  1
  O  O42  1  0.19055400  0.67030100  0.33822100  1
  O  O43  1  0.69373000  0.65616500  0.43443400  1
  O  O44  1  0.30253000  0.67164000  0.00000000  1
  O  O45  1  0.80253000  0.67164000  0.11379000  1
  O  O46  1  0.30253000  0.67164000  0.22759000  1
  O  O47  1  0.80734700  0.67107700  0.33762300  1
  O  O48  1  0.30527100  0.65485600  0.43496800  1
  O  O49  1  0.69747000  0.32836000  0.00000000  1
  O  O50  1  0.19747000  0.32836000  0.11379000  1
  O  O51  1  0.69747000  0.32836000  0.22759000  1
  O  O52  1  0.19282900  0.32852100  0.33764700  1
  O  O53  1  0.72005500  0.33879100  0.45563500  1
  O  O54  1  0.30253000  0.32836000  0.00000000  1
  O  O55  1  0.80253000  0.32836000  0.11379000  1
  O  O56  1  0.30253000  0.32836000  0.22759000  1
  O  O57  1  0.80540400  0.32868800  0.33737800  1
  O  O58  1  0.27560700  0.33652900  0.45550300  1
  O  O59  1  0.00000000  0.82836000  0.04494000  1
  O  O60  1  0.50000000  0.82836000  0.15874000  1
  O  O61  1  0.00021600  0.84468700  0.27066400  1
  O  O62  1  0.49906400  0.85457300  0.37990900  1
  O  O63  1  0.50000000  0.82836000  0.06885000  1
  O  O64  1  1.00000000  0.82836000  0.18264000  1
  O  O65  1  0.49698300  0.84331800  0.29389800  1
  O  O66  1  0.00018400  0.83730200  0.41123400  1
  O  O67  1  0.00000000  0.50000000  0.04332000  1
  O  O68  1  0.50000000  0.50000000  0.15711000  1
  O  O69  1  0.00049200  0.49998000  0.27169600  1
  O  O70  1  0.49886000  0.46568400  0.37408700  1
  O  O71  1  0.50000000  0.50000000  0.07048000  1
  O  O72  1  1.00000000  0.50000000  0.18427000  1
  O  O73  1  0.49826700  0.49698800  0.29298600  1
  O  O74  1  0.99884400  0.49638600  0.40604800  1
  O  O75  1  0.69034000  0.00000000  0.00000000  1
  O  O76  1  0.19034000  0.00000000  0.11379000  1
  O  O77  1  0.69034000  0.00000000  0.22759000  1
  O  O78  1  0.19420000  0.99594100  0.33841900  1
  O  O79  1  0.69991600  0.96043900  0.45892100  1
  O  O80  1  0.30966000  0.00000000  0.00000000  1
  O  O81  1  0.80966000  0.00000000  0.11379000  1
  O  O82  1  0.30966000  0.00000000  0.22759000  1
  O  O83  1  0.80138200  0.99526500  0.33794700  1
  O  O84  1  0.29990000  0.96046000  0.45924500  1
