# generated using pymatgen
data_MgTiMnVZnCrFeCoCuNiSb20ClO54
_symmetry_space_group_name_H-M   'P 1'
_cell_length_a   6.61801900
_cell_length_b   9.64946100
_cell_length_c   29.11023500
_cell_angle_alpha   89.78116600
_cell_angle_beta   89.92366000
_cell_angle_gamma   89.96320800
_symmetry_Int_Tables_number   1
_chemical_formula_structural   MgTiMnVZnCrFeCoCuNiSb20ClO54
_chemical_formula_sum
'Mg1 Ti1 Mn1 V1 Zn1 Cr1 Fe1 Co1 Cu1 Ni1 Sb20 Cl1 O54'
_cell_volume   1858.97322647
_cell_formula_units_Z   1
loop_
 _symmetry_equiv_pos_site_id
 _symmetry_equiv_pos_as_xyz
  1  'x, y, z'
loop_
 _atom_site_type_symbol
 _atom_site_label
 _atom_site_symmetry_multiplicity
 _atom_site_fract_x
 _atom_site_fract_y
 _atom_site_fract_z
 _atom_site_occupancy
  Mg  Mg0  1  0.99892000  0.50492400  0.34080800  1
  Ti  Ti1  1  0.50000000  0.16768000  1.00000000  1
  Mn  Mn2  1  0.50000000  0.83232000  0.22759000  1
  V  V3  1  1.00000000  0.66768000  1.00000000  1
  Zn  Zn4  1  0.99966300  0.81301900  0.33744700  1
  Cr  Cr5  1  0.00000000  0.66768000  0.22759000  1
  Fe  Fe6  1  0.00000000  0.00000000  0.00000000  1
  Co  Co7  1  0.99418000  0.33972500  0.44794200  1
  Cu  Cu8  1  0.50006200  0.49316500  0.45428500  1
  Ni  Ni9  1  0.00000000  0.50000000  0.11379000  1
  Sb  Sb10  1  0.50000000  1.00000000  0.11379000  1
  Sb  Sb11  1  0.00000000  0.00000000  0.22759000  1
  Sb  Sb12  1  0.49819000  0.99561400  0.34483100  1
  Sb  Sb13  1  0.99860500  0.98801200  0.44186700  1
  Sb  Sb14  1  0.50000000  0.50000000  1.00000000  1
  Sb  Sb15  1  0.50000000  0.50000000  0.22759000  1
  Sb  Sb16  1  0.00000000  0.33232000  1.00000000  1
  Sb  Sb17  1  0.50000000  0.33232000  0.11379000  1
  Sb  Sb18  1  0.00000000  0.33232000  0.22759000  1
  Sb  Sb19  1  0.49765200  0.32877700  0.34427200  1
  Sb  Sb20  1  0.50000000  0.83232000  0.00000000  1
  Sb  Sb21  1  0.00000000  0.83232000  0.11379000  1
  Sb  Sb22  1  0.50040800  0.79263700  0.46938700  1
  Sb  Sb23  1  0.00000000  0.16768000  0.11379000  1
  Sb  Sb24  1  0.50000000  0.16768000  0.22759000  1
  Sb  Sb25  1  0.99715400  0.16540400  0.34218800  1
  Sb  Sb26  1  0.49386900  0.18587900  0.46787100  1
  Sb  Sb27  1  0.50000000  0.66768000  0.11379000  1
  Sb  Sb28  1  0.49882300  0.66945000  0.34845400  1
  Sb  Sb29  1  0.00134800  0.64559800  0.45498900  1
  Cl  Cl30  1  0.49854200  0.56064400  0.52961600  1
  O  O31  1  0.00000000  0.17164000  0.04494000  1
  O  O32  1  0.50000000  0.17164000  0.15874000  1
  O  O33  1  0.00019600  0.15525700  0.27065200  1
  O  O34  1  0.49813300  0.16393800  0.38993500  1
  O  O35  1  0.50000000  0.17164000  0.06885000  1
  O  O36  1  0.00000000  0.17164000  0.18264000  1
  O  O37  1  0.49709400  0.16393700  0.29831100  1
  O  O38  1  0.99107500  0.16839300  0.41024200  1
  O  O39  1  0.69747000  0.67164000  1.00000000  1
  O  O40  1  0.19747000  0.67164000  0.11379000  1
  O  O41  1  0.69747000  0.67164000  0.22759000  1
  O  O42  1  0.21167000  0.66065400  0.33985500  1
  O  O43  1  0.69753900  0.66407700  0.44032600  1
  O  O44  1  0.30253000  0.67164000  1.00000000  1
  O  O45  1  0.80253000  0.67164000  0.11379000  1
  O  O46  1  0.30253000  0.67164000  0.22759000  1
  O  O47  1  0.78654200  0.66132300  0.34006100  1
  O  O48  1  0.31228000  0.65472000  0.44003700  1
  O  O49  1  0.69747000  0.32836000  1.00000000  1
  O  O50  1  0.19747000  0.32836000  0.11379000  1
  O  O51  1  0.69747000  0.32836000  0.22759000  1
  O  O52  1  0.19342200  0.32132900  0.33867000  1
  O  O53  1  0.71257300  0.33379100  0.45890700  1
  O  O54  1  0.30253000  0.32836000  1.00000000  1
  O  O55  1  0.80253000  0.32836000  0.11379000  1
  O  O56  1  0.30253000  0.32836000  0.22759000  1
  O  O57  1  0.80128200  0.32071200  0.33759400  1
  O  O58  1  0.27153300  0.32802000  0.45989400  1
  O  O59  1  0.00000000  0.82836000  0.04494000  1
  O  O60  1  0.50000000  0.82836000  0.15874000  1
  O  O61  1  0.00021600  0.84468700  0.27066400  1
  O  O62  1  0.49702600  0.84629900  0.39145400  1
  O  O63  1  0.50000000  0.82836000  0.06885000  1
  O  O64  1  0.00000000  0.82836000  0.18264000  1
  O  O65  1  0.49964100  0.84033900  0.30021600  1
  O  O66  1  0.00819300  0.81605000  0.40854500  1
  O  O67  1  1.00000000  0.50000000  0.04332000  1
  O  O68  1  0.50000000  0.50000000  0.15711000  1
  O  O69  1  0.00049200  0.49998000  0.27169600  1
  O  O70  1  0.50162800  0.48446800  0.38609900  1
  O  O71  1  0.50000000  0.50000000  0.07048000  1
  O  O72  1  0.00000000  0.50000000  0.18427000  1
  O  O73  1  0.49859700  0.48467900  0.29750800  1
  O  O74  1  0.99841800  0.49647200  0.40956900  1
  O  O75  1  0.69034000  0.00000000  0.00000000  1
  O  O76  1  0.19034000  1.00000000  0.11379000  1
  O  O77  1  0.69034000  0.00000000  0.22759000  1
  O  O78  1  0.19368600  0.00766300  0.34481900  1
  O  O79  1  0.74157700  0.99425900  0.47041900  1
  O  O80  1  0.30966000  1.00000000  0.00000000  1
  O  O81  1  0.80966000  0.00000000  0.11379000  1
  O  O82  1  0.30966000  1.00000000  0.22759000  1
  O  O83  1  0.80195400  0.00666800  0.34406100  1
  O  O84  1  0.25417300  0.00364200  0.47038900  1
