# generated using pymatgen
data_MgTiMnVZnCrFeCoCuNiSb20ClO54
_symmetry_space_group_name_H-M   'P 1'
_cell_length_a   6.63099800
_cell_length_b   9.62124800
_cell_length_c   29.07429200
_cell_angle_alpha   89.69747700
_cell_angle_beta   89.96648100
_cell_angle_gamma   89.99102700
_symmetry_Int_Tables_number   1
_chemical_formula_structural   MgTiMnVZnCrFeCoCuNiSb20ClO54
_chemical_formula_sum
'Mg1 Ti1 Mn1 V1 Zn1 Cr1 Fe1 Co1 Cu1 Ni1 Sb20 Cl1 O54'
_cell_volume   1854.86933233
_cell_formula_units_Z   1
loop_
 _symmetry_equiv_pos_site_id
 _symmetry_equiv_pos_as_xyz
  1  'x, y, z'
loop_
 _atom_site_type_symbol
 _atom_site_label
 _atom_site_symmetry_multiplicity
 _atom_site_fract_x
 _atom_site_fract_y
 _atom_site_fract_z
 _atom_site_occupancy
  Mg  Mg0  1  1.00000000  0.66768000  0.77241000  1
  Ti  Ti1  1  0.00007000  0.80407400  0.66577400  1
  Mn  Mn2  1  0.50000000  0.16768000  0.77241000  1
  V  V3  1  0.50000000  0.33232000  0.88621000  1
  Zn  Zn4  1  0.00102500  0.18970200  0.66306800  1
  Cr  Cr5  1  1.00000000  0.66768000  0.00000000  1
  Fe  Fe6  1  0.00000000  0.33232000  0.00000000  1
  Co  Co7  1  0.50000000  0.50000000  1.00000000  1
  Cu  Cu8  1  0.49844500  0.50155800  0.54872000  1
  Ni  Ni9  1  0.00007700  0.49458100  0.66148200  1
  Sb  Sb10  1  0.00000000  0.00000000  0.00000000  1
  Sb  Sb11  1  0.50000000  0.00000000  0.88621000  1
  Sb  Sb12  1  0.00000000  0.00000000  0.77241000  1
  Sb  Sb13  1  0.49977400  0.00005800  0.65301500  1
  Sb  Sb14  1  0.99750400  0.99847700  0.58409300  1
  Sb  Sb15  1  1.00000000  0.50000000  0.88621000  1
  Sb  Sb16  1  0.50000000  0.50000000  0.77241000  1
  Sb  Sb17  1  0.50000000  0.66768000  0.88621000  1
  Sb  Sb18  1  0.50005300  0.66593000  0.65530800  1
  Sb  Sb19  1  0.00044800  0.66092300  0.54329900  1
  Sb  Sb20  1  0.50000000  0.16768000  1.00000000  1
  Sb  Sb21  1  0.00000000  0.16768000  0.88621000  1
  Sb  Sb22  1  0.49996800  0.18054800  0.53654100  1
  Sb  Sb23  1  0.50000000  0.83232000  1.00000000  1
  Sb  Sb24  1  1.00000000  0.83232000  0.88621000  1
  Sb  Sb25  1  0.50000000  0.83232000  0.77241000  1
  Sb  Sb26  1  0.49823500  0.81872600  0.53559100  1
  Sb  Sb27  1  0.00000000  0.33232000  0.77241000  1
  Sb  Sb28  1  0.50053200  0.33073600  0.65756300  1
  Sb  Sb29  1  0.00093200  0.33958100  0.54304500  1
  Cl  Cl30  1  0.48682000  0.51506600  0.47099200  1
  O  O31  1  1.00000000  0.82836000  0.95506000  1
  O  O32  1  0.50000000  0.82836000  0.84126000  1
  O  O33  1  0.00019600  0.84474300  0.72934800  1
  O  O34  1  0.50164300  0.83303400  0.61124300  1
  O  O35  1  0.50000000  0.82836000  0.93115000  1
  O  O36  1  1.00000000  0.82836000  0.81736000  1
  O  O37  1  0.49915300  0.83836200  0.70078300  1
  O  O38  1  0.99559000  0.79690200  0.59668900  1
  O  O39  1  0.69747000  0.32836000  0.00000000  1
  O  O40  1  0.19747000  0.32836000  0.88621000  1
  O  O41  1  0.69747000  0.32836000  0.77241000  1
  O  O42  1  0.20921100  0.33955200  0.66354700  1
  O  O43  1  0.68891000  0.33837400  0.55110700  1
  O  O44  1  0.30253000  0.32836000  1.00000000  1
  O  O45  1  0.80253000  0.32836000  0.88621000  1
  O  O46  1  0.30253000  0.32836000  0.77241000  1
  O  O47  1  0.79167600  0.33893400  0.66389900  1
  O  O48  1  0.31197300  0.33876500  0.55268200  1
  O  O49  1  0.69747000  0.67164000  0.00000000  1
  O  O50  1  0.19747000  0.67164000  0.88621000  1
  O  O51  1  0.69747000  0.67164000  0.77241000  1
  O  O52  1  0.20181200  0.67027400  0.66405100  1
  O  O53  1  0.68935900  0.66289200  0.55341700  1
  O  O54  1  0.30253000  0.67164000  1.00000000  1
  O  O55  1  0.80253000  0.67164000  0.88621000  1
  O  O56  1  0.30253000  0.67164000  0.77241000  1
  O  O57  1  0.79804000  0.67038200  0.66468800  1
  O  O58  1  0.30921800  0.66502300  0.55582500  1
  O  O59  1  0.00000000  0.17164000  0.95506000  1
  O  O60  1  0.50000000  0.17164000  0.84126000  1
  O  O61  1  0.00021600  0.15531300  0.72933600  1
  O  O62  1  0.50052800  0.16342500  0.61012800  1
  O  O63  1  0.50000000  0.17164000  0.93115000  1
  O  O64  1  0.00000000  0.17164000  0.81736000  1
  O  O65  1  0.49984700  0.15279400  0.70000900  1
  O  O66  1  0.99972500  0.19803600  0.59399900  1
  O  O67  1  1.00000000  0.50000000  0.95668000  1
  O  O68  1  0.50000000  0.50000000  0.84289000  1
  O  O69  1  0.00049200  0.50002000  0.72830400  1
  O  O70  1  0.50291300  0.50062500  0.61641800  1
  O  O71  1  0.50000000  0.50000000  0.92952000  1
  O  O72  1  1.00000000  0.50000000  0.81573000  1
  O  O73  1  0.49933400  0.50601600  0.70366700  1
  O  O74  1  0.99908700  0.49909700  0.58776000  1
  O  O75  1  0.69034000  1.00000000  0.00000000  1
  O  O76  1  0.19034000  0.00000000  0.88621000  1
  O  O77  1  0.69034000  1.00000000  0.77241000  1
  O  O78  1  0.18617400  0.98577300  0.64864900  1
  O  O79  1  0.75245100  0.99598800  0.54752100  1
  O  O80  1  0.30966000  0.00000000  1.00000000  1
  O  O81  1  0.80966000  1.00000000  0.88621000  1
  O  O82  1  0.30966000  0.00000000  0.77241000  1
  O  O83  1  0.81356400  0.98648700  0.64873900  1
  O  O84  1  0.24211000  0.99252200  0.54745200  1
