# generated using pymatgen
data_MgTiMnVZnCrFeCoCuNiSb20ClO54
_symmetry_space_group_name_H-M   'P 1'
_cell_length_a   6.61041400
_cell_length_b   9.55037600
_cell_length_c   28.99878800
_cell_angle_alpha   89.74990900
_cell_angle_beta   89.89045300
_cell_angle_gamma   89.49109600
_symmetry_Int_Tables_number   1
_chemical_formula_structural   MgTiMnVZnCrFeCoCuNiSb20ClO54
_chemical_formula_sum
'Mg1 Ti1 Mn1 V1 Zn1 Cr1 Fe1 Co1 Cu1 Ni1 Sb20 Cl1 O54'
_cell_volume   1830.65685568
_cell_formula_units_Z   1
loop_
 _symmetry_equiv_pos_site_id
 _symmetry_equiv_pos_as_xyz
  1  'x, y, z'
loop_
 _atom_site_type_symbol
 _atom_site_label
 _atom_site_symmetry_multiplicity
 _atom_site_fract_x
 _atom_site_fract_y
 _atom_site_fract_z
 _atom_site_occupancy
  Mg  Mg0  1  0.50000000  0.16768000  0.00000000  1
  Ti  Ti1  1  0.00014800  0.50366000  0.34162600  1
  Mn  Mn2  1  0.50000000  0.16768000  0.22759000  1
  V  V3  1  1.00000000  0.00000000  0.22759000  1
  Zn  Zn4  1  0.08175400  0.33572200  0.45002800  1
  Cr  Cr5  1  1.00000000  0.33232000  0.22759000  1
  Fe  Fe6  1  0.50000000  0.50000000  0.00000000  1
  Co  Co7  1  0.00000000  0.66768000  0.00000000  1
  Cu  Cu8  1  0.49737500  0.49116200  0.45572100  1
  Ni  Ni9  1  1.00000000  0.83232000  0.11379000  1
  Sb  Sb10  1  0.00000000  0.00000000  0.00000000  1
  Sb  Sb11  1  0.50000000  1.00000000  0.11379000  1
  Sb  Sb12  1  0.50852600  0.00992300  0.34179200  1
  Sb  Sb13  1  0.95979500  0.02066300  0.45385300  1
  Sb  Sb14  1  0.00000000  0.50000000  0.11379000  1
  Sb  Sb15  1  0.50000000  0.50000000  0.22759000  1
  Sb  Sb16  1  1.00000000  0.33232000  0.00000000  1
  Sb  Sb17  1  0.50000000  0.33232000  0.11379000  1
  Sb  Sb18  1  0.50203200  0.32814500  0.33916900  1
  Sb  Sb19  1  0.50000000  0.83232000  0.00000000  1
  Sb  Sb20  1  0.50000000  0.83232000  0.22759000  1
  Sb  Sb21  1  0.02485200  0.81965000  0.34283700  1
  Sb  Sb22  1  0.45086500  0.82781500  0.46407400  1
  Sb  Sb23  1  1.00000000  0.16768000  0.11379000  1
  Sb  Sb24  1  0.00163600  0.17017800  0.33783700  1
  Sb  Sb25  1  0.58954900  0.24449900  0.50953800  1
  Sb  Sb26  1  0.50000000  0.66768000  0.11379000  1
  Sb  Sb27  1  1.00000000  0.66768000  0.22759000  1
  Sb  Sb28  1  0.50443400  0.66251200  0.36405700  1
  Sb  Sb29  1  0.96379100  0.64801400  0.45806100  1
  Cl  Cl30  1  0.45033000  0.57190600  0.52802400  1
  O  O31  1  1.00000000  0.17164000  0.04494000  1
  O  O32  1  0.50000000  0.17164000  0.15874000  1
  O  O33  1  0.00019600  0.15525700  0.27065200  1
  O  O34  1  0.51573800  0.17239600  0.38312800  1
  O  O35  1  0.50000000  0.17164000  0.06885000  1
  O  O36  1  1.00000000  0.17164000  0.18264000  1
  O  O37  1  0.50520500  0.16754300  0.29368000  1
  O  O38  1  0.00624400  0.16939500  0.40875700  1
  O  O39  1  0.69747000  0.67164000  0.00000000  1
  O  O40  1  0.19747000  0.67164000  0.11379000  1
  O  O41  1  0.69747000  0.67164000  0.22759000  1
  O  O42  1  0.19886500  0.62910800  0.33375700  1
  O  O43  1  0.64787100  0.65640400  0.43804700  1
  O  O44  1  0.30253000  0.67164000  0.00000000  1
  O  O45  1  0.80253000  0.67164000  0.11379000  1
  O  O46  1  0.30253000  0.67164000  0.22759000  1
  O  O47  1  0.81542400  0.65215800  0.34126200  1
  O  O48  1  0.25204900  0.70197400  0.43381200  1
  O  O49  1  0.69747000  0.32836000  0.00000000  1
  O  O50  1  0.19747000  0.32836000  0.11379000  1
  O  O51  1  0.69747000  0.32836000  0.22759000  1
  O  O52  1  0.19335500  0.32967100  0.33954300  1
  O  O53  1  0.81943000  0.34071400  0.48280300  1
  O  O54  1  0.30253000  0.32836000  0.00000000  1
  O  O55  1  0.80253000  0.32836000  0.11379000  1
  O  O56  1  0.30253000  0.32836000  0.22759000  1
  O  O57  1  0.81141900  0.33083500  0.33740600  1
  O  O58  1  0.36459300  0.31485600  0.46799700  1
  O  O59  1  0.00000000  0.82836000  0.04494000  1
  O  O60  1  0.50000000  0.82836000  0.15874000  1
  O  O61  1  0.00021600  0.84468700  0.27066400  1
  O  O62  1  0.49299700  0.89344300  0.39710000  1
  O  O63  1  0.50000000  0.82836000  0.06885000  1
  O  O64  1  1.00000000  0.82836000  0.18264000  1
  O  O65  1  0.50127400  0.84539600  0.29902600  1
  O  O66  1  0.90197500  0.84493400  0.42505900  1
  O  O67  1  0.00000000  0.50000000  0.04332000  1
  O  O68  1  0.50000000  0.50000000  0.15711000  1
  O  O69  1  0.00049200  0.49998000  0.27169600  1
  O  O70  1  0.50059300  0.46103500  0.38967700  1
  O  O71  1  0.50000000  0.50000000  0.07048000  1
  O  O72  1  0.00000000  0.50000000  0.18427000  1
  O  O73  1  0.51153500  0.49400500  0.29801400  1
  O  O74  1  0.00311400  0.49817700  0.40987600  1
  O  O75  1  0.69034000  0.00000000  0.00000000  1
  O  O76  1  0.19034000  1.00000000  0.11379000  1
  O  O77  1  0.69034000  0.00000000  0.22759000  1
  O  O78  1  0.20609600  0.01857000  0.33993100  1
  O  O79  1  0.70275900  0.05338200  0.48376300  1
  O  O80  1  0.30966000  1.00000000  0.00000000  1
  O  O81  1  0.80966000  0.00000000  0.11379000  1
  O  O82  1  0.30966000  1.00000000  0.22759000  1
  O  O83  1  0.81318900  0.00639300  0.34135400  1
  O  O84  1  0.20998000  0.98777100  0.48405300  1
