# generated using pymatgen
data_MgTiMnVZnCrFeCoCuNiSb20ClO54
_symmetry_space_group_name_H-M   'P 1'
_cell_length_a   6.60819800
_cell_length_b   9.60094000
_cell_length_c   28.62399900
_cell_angle_alpha   89.59407600
_cell_angle_beta   89.93841000
_cell_angle_gamma   89.96476600
_symmetry_Int_Tables_number   1
_chemical_formula_structural   MgTiMnVZnCrFeCoCuNiSb20ClO54
_chemical_formula_sum
'Mg1 Ti1 Mn1 V1 Zn1 Cr1 Fe1 Co1 Cu1 Ni1 Sb20 Cl1 O54'
_cell_volume   1816.00015164
_cell_formula_units_Z   1
loop_
 _symmetry_equiv_pos_site_id
 _symmetry_equiv_pos_as_xyz
  1  'x, y, z'
loop_
 _atom_site_type_symbol
 _atom_site_label
 _atom_site_symmetry_multiplicity
 _atom_site_fract_x
 _atom_site_fract_y
 _atom_site_fract_z
 _atom_site_occupancy
  Mg  Mg0  1  0.00000000  0.66768000  0.00000000  1
  Ti  Ti1  1  0.50000000  0.33232000  0.11379000  1
  Mn  Mn2  1  0.50000000  0.16768000  0.00000000  1
  V  V3  1  0.50000000  0.66768000  0.11379000  1
  Zn  Zn4  1  1.00000000  0.16768000  0.11379000  1
  Cr  Cr5  1  0.49962900  0.15795500  0.45289200  1
  Fe  Fe6  1  0.99848200  0.82881000  0.34031900  1
  Co  Co7  1  0.00000000  0.00000000  0.00000000  1
  Cu  Cu8  1  0.50440500  0.46287500  0.46424200  1
  Ni  Ni9  1  1.00000000  0.66768000  0.22759000  1
  Sb  Sb10  1  0.50000000  0.00000000  0.11379000  1
  Sb  Sb11  1  1.00000000  0.00000000  0.22759000  1
  Sb  Sb12  1  0.49856200  0.99190200  0.34306700  1
  Sb  Sb13  1  0.00183400  0.00218700  0.46281000  1
  Sb  Sb14  1  0.50000000  0.50000000  0.00000000  1
  Sb  Sb15  1  1.00000000  0.50000000  0.11379000  1
  Sb  Sb16  1  0.50000000  0.50000000  0.22759000  1
  Sb  Sb17  1  0.00468700  0.51708900  0.34354400  1
  Sb  Sb18  1  0.50137700  0.66056500  0.37498800  1
  Sb  Sb19  1  0.00050800  0.67547300  0.45846400  1
  Sb  Sb20  1  0.50000000  0.16768000  0.22759000  1
  Sb  Sb21  1  0.99908500  0.15684200  0.34689000  1
  Sb  Sb22  1  0.50000000  0.83232000  0.00000000  1
  Sb  Sb23  1  1.00000000  0.83232000  0.11379000  1
  Sb  Sb24  1  0.50000000  0.83232000  0.22759000  1
  Sb  Sb25  1  0.50251500  0.82449500  0.47295000  1
  Sb  Sb26  1  1.00000000  0.33232000  0.00000000  1
  Sb  Sb27  1  1.00000000  0.33232000  0.22759000  1
  Sb  Sb28  1  0.49962500  0.32568200  0.34386500  1
  Sb  Sb29  1  0.99864100  0.32803200  0.47595500  1
  Cl  Cl30  1  0.52746800  0.52987000  0.53549900  1
  O  O31  1  1.00000000  0.82836000  0.04494000  1
  O  O32  1  0.50000000  0.82836000  0.15874000  1
  O  O33  1  0.99980400  0.84474300  0.27065200  1
  O  O34  1  0.50099200  0.86226500  0.39445000  1
  O  O35  1  0.50000000  0.82836000  0.06885000  1
  O  O36  1  1.00000000  0.82836000  0.18264000  1
  O  O37  1  0.50202200  0.84378900  0.29705500  1
  O  O38  1  0.99982700  0.84884700  0.41400900  1
  O  O39  1  0.30253000  0.32836000  0.00000000  1
  O  O40  1  0.80253000  0.32836000  0.11379000  1
  O  O41  1  0.30253000  0.32836000  0.22759000  1
  O  O42  1  0.80180000  0.31245700  0.33990700  1
  O  O43  1  0.30589300  0.28314000  0.46732300  1
  O  O44  1  0.69747000  0.32836000  0.00000000  1
  O  O45  1  0.19747000  0.32836000  0.11379000  1
  O  O46  1  0.69747000  0.32836000  0.22759000  1
  O  O47  1  0.19831600  0.30936700  0.33760100  1
  O  O48  1  0.69354300  0.28667600  0.46317400  1
  O  O49  1  0.30253000  0.67164000  0.00000000  1
  O  O50  1  0.80253000  0.67164000  0.11379000  1
  O  O51  1  0.30253000  0.67164000  0.22759000  1
  O  O52  1  0.80059200  0.68389600  0.34304700  1
  O  O53  1  0.31122400  0.67348900  0.43926900  1
  O  O54  1  0.69747000  0.67164000  0.00000000  1
  O  O55  1  0.19747000  0.67164000  0.11379000  1
  O  O56  1  0.69747000  0.67164000  0.22759000  1
  O  O57  1  0.20197100  0.68785800  0.34407400  1
  O  O58  1  0.69122300  0.67255600  0.43788400  1
  O  O59  1  1.00000000  0.17164000  0.04494000  1
  O  O60  1  0.50000000  0.17164000  0.15874000  1
  O  O61  1  0.99978400  0.15531300  0.27066400  1
  O  O62  1  0.49542500  0.15752200  0.38730500  1
  O  O63  1  0.50000000  0.17164000  0.06885000  1
  O  O64  1  1.00000000  0.17164000  0.18264000  1
  O  O65  1  0.50417200  0.16047000  0.29814700  1
  O  O66  1  0.00412100  0.16624400  0.41642100  1
  O  O67  1  0.00000000  0.50000000  0.04332000  1
  O  O68  1  0.50000000  0.50000000  0.15711000  1
  O  O69  1  0.99950800  0.50002000  0.27169600  1
  O  O70  1  0.48797400  0.45260400  0.39617100  1
  O  O71  1  0.50000000  0.50000000  0.07048000  1
  O  O72  1  1.00000000  0.50000000  0.18427000  1
  O  O73  1  0.49975100  0.48122500  0.29873100  1
  O  O74  1  0.00231000  0.48488400  0.42760500  1
  O  O75  1  0.30966000  0.00000000  0.00000000  1
  O  O76  1  0.80966000  0.00000000  0.11379000  1
  O  O77  1  0.30966000  0.00000000  0.22759000  1
  O  O78  1  0.80381900  0.00108400  0.34200200  1
  O  O79  1  0.31639700  0.00318800  0.45920800  1
  O  O80  1  0.69034000  0.00000000  0.00000000  1
  O  O81  1  0.19034000  0.00000000  0.11379000  1
  O  O82  1  0.69034000  0.00000000  0.22759000  1
  O  O83  1  0.19430400  0.00067200  0.34111700  1
  O  O84  1  0.68555100  0.00654000  0.45922200  1
