# generated using pymatgen
data_MgTiMnVZnCrFeCoCuNiSb20ClO54
_symmetry_space_group_name_H-M   'P 1'
_cell_length_a   6.65272900
_cell_length_b   9.46392300
_cell_length_c   28.85018300
_cell_angle_alpha   89.74192800
_cell_angle_beta   89.97071600
_cell_angle_gamma   89.99181400
_symmetry_Int_Tables_number   1
_chemical_formula_structural   MgTiMnVZnCrFeCoCuNiSb20ClO54
_chemical_formula_sum
'Mg1 Ti1 Mn1 V1 Zn1 Cr1 Fe1 Co1 Cu1 Ni1 Sb20 Cl1 O54'
_cell_volume   1816.41523853
_cell_formula_units_Z   1
loop_
 _symmetry_equiv_pos_site_id
 _symmetry_equiv_pos_as_xyz
  1  'x, y, z'
loop_
 _atom_site_type_symbol
 _atom_site_label
 _atom_site_symmetry_multiplicity
 _atom_site_fract_x
 _atom_site_fract_y
 _atom_site_fract_z
 _atom_site_occupancy
  Mg  Mg0  1  0.49949400  0.83255900  0.54380800  1
  Ti  Ti1  1  1.00000000  0.33232000  0.77241000  1
  Mn  Mn2  1  1.00000000  0.50000000  0.88621000  1
  V  V3  1  1.00000000  0.83232000  0.88621000  1
  Zn  Zn4  1  0.50000000  0.50000000  0.77241000  1
  Cr  Cr5  1  0.00000000  0.33232000  0.00000000  1
  Fe  Fe6  1  0.00031600  0.16575000  0.65564200  1
  Co  Co7  1  0.50000000  0.16768000  0.00000000  1
  Cu  Cu8  1  0.49674800  0.50706100  0.54167500  1
  Ni  Ni9  1  0.50000000  0.66768000  0.88621000  1
  Sb  Sb10  1  0.00000000  0.00000000  0.00000000  1
  Sb  Sb11  1  0.50000000  1.00000000  0.88621000  1
  Sb  Sb12  1  1.00000000  1.00000000  0.77241000  1
  Sb  Sb13  1  0.50025300  0.00286200  0.65225500  1
  Sb  Sb14  1  0.99842000  0.00328500  0.53761800  1
  Sb  Sb15  1  0.50000000  0.50000000  0.00000000  1
  Sb  Sb16  1  0.99998900  0.48843300  0.65432200  1
  Sb  Sb17  1  0.00000000  0.66768000  0.00000000  1
  Sb  Sb18  1  1.00000000  0.66768000  0.77241000  1
  Sb  Sb19  1  0.50030100  0.66710700  0.65750000  1
  Sb  Sb20  1  0.99929400  0.66891300  0.53213300  1
  Sb  Sb21  1  1.00000000  0.16768000  0.88621000  1
  Sb  Sb22  1  0.50000000  0.16768000  0.77241000  1
  Sb  Sb23  1  0.49634800  0.17825200  0.52161600  1
  Sb  Sb24  1  0.50000000  0.83232000  0.00000000  1
  Sb  Sb25  1  0.50000000  0.83232000  0.77241000  1
  Sb  Sb26  1  0.99982900  0.84136100  0.65416100  1
  Sb  Sb27  1  0.50000000  0.33232000  0.88621000  1
  Sb  Sb28  1  0.50034200  0.33534400  0.65255900  1
  Sb  Sb29  1  0.99870000  0.32479800  0.53691300  1
  Cl  Cl30  1  0.47992800  0.48024200  0.46417600  1
  O  O31  1  1.00000000  0.82836000  0.95506000  1
  O  O32  1  0.50000000  0.82836000  0.84126000  1
  O  O33  1  0.00019600  0.84474300  0.72934800  1
  O  O34  1  0.50252400  0.83055100  0.61389400  1
  O  O35  1  0.50000000  0.82836000  0.93115000  1
  O  O36  1  1.00000000  0.82836000  0.81736000  1
  O  O37  1  0.49982300  0.84062700  0.70255400  1
  O  O38  1  0.99735800  0.83471800  0.58542100  1
  O  O39  1  0.69747000  0.32836000  0.00000000  1
  O  O40  1  0.19747000  0.32836000  0.88621000  1
  O  O41  1  0.69747000  0.32836000  0.77241000  1
  O  O42  1  0.20133000  0.32088700  0.65899700  1
  O  O43  1  0.68859800  0.33391600  0.54976500  1
  O  O44  1  0.30253000  0.32836000  0.00000000  1
  O  O45  1  0.80253000  0.32836000  0.88621000  1
  O  O46  1  0.30253000  0.32836000  0.77241000  1
  O  O47  1  0.79943600  0.32088800  0.65937800  1
  O  O48  1  0.30629900  0.33257800  0.55193500  1
  O  O49  1  0.69747000  0.67164000  0.00000000  1
  O  O50  1  0.19747000  0.67164000  0.88621000  1
  O  O51  1  0.69747000  0.67164000  0.77241000  1
  O  O52  1  0.19863800  0.68191900  0.66165100  1
  O  O53  1  0.69595700  0.66898800  0.53876500  1
  O  O54  1  0.30253000  0.67164000  0.00000000  1
  O  O55  1  0.80253000  0.67164000  0.88621000  1
  O  O56  1  0.30253000  0.67164000  0.77241000  1
  O  O57  1  0.80195200  0.68146600  0.66225700  1
  O  O58  1  0.30213800  0.66903400  0.54149300  1
  O  O59  1  1.00000000  0.17164000  0.95506000  1
  O  O60  1  0.50000000  0.17164000  0.84126000  1
  O  O61  1  0.00021600  0.15531300  0.72933600  1
  O  O62  1  0.50126900  0.16642000  0.61112300  1
  O  O63  1  0.50000000  0.17164000  0.93115000  1
  O  O64  1  1.00000000  0.17164000  0.81736000  1
  O  O65  1  0.49931600  0.16001100  0.70153300  1
  O  O66  1  0.99657500  0.16307100  0.58632000  1
  O  O67  1  1.00000000  0.50000000  0.95668000  1
  O  O68  1  0.50000000  0.50000000  0.84289000  1
  O  O69  1  0.00049200  0.50002000  0.72830400  1
  O  O70  1  0.50399300  0.51027300  0.61198300  1
  O  O71  1  0.50000000  0.50000000  0.92952000  1
  O  O72  1  1.00000000  0.50000000  0.81573000  1
  O  O73  1  0.49888500  0.50023400  0.70038500  1
  O  O74  1  0.99618700  0.49997200  0.57776900  1
  O  O75  1  0.69034000  0.00000000  1.00000000  1
  O  O76  1  0.19034000  1.00000000  0.88621000  1
  O  O77  1  0.69034000  0.00000000  0.77241000  1
  O  O78  1  0.19740200  0.99929900  0.65804900  1
  O  O79  1  0.68836700  0.00621800  0.54269700  1
  O  O80  1  0.30966000  1.00000000  0.00000000  1
  O  O81  1  0.80966000  0.00000000  0.88621000  1
  O  O82  1  0.30966000  1.00000000  0.77241000  1
  O  O83  1  0.80326600  0.99964000  0.65853500  1
  O  O84  1  0.30782900  0.00502300  0.54404000  1
