# generated using pymatgen
data_MgTiMnVZnCrFeCoCuNiSb20ClO54
_symmetry_space_group_name_H-M   'P 1'
_cell_length_a   6.66424700
_cell_length_b   9.60441900
_cell_length_c   29.62006900
_cell_angle_alpha   90.01055000
_cell_angle_beta   89.93503600
_cell_angle_gamma   89.87796100
_symmetry_Int_Tables_number   1
_chemical_formula_structural   MgTiMnVZnCrFeCoCuNiSb20ClO54
_chemical_formula_sum
'Mg1 Ti1 Mn1 V1 Zn1 Cr1 Fe1 Co1 Cu1 Ni1 Sb20 Cl1 O54'
_cell_volume   1895.86311562
_cell_formula_units_Z   1
loop_
 _symmetry_equiv_pos_site_id
 _symmetry_equiv_pos_as_xyz
  1  'x, y, z'
loop_
 _atom_site_type_symbol
 _atom_site_label
 _atom_site_symmetry_multiplicity
 _atom_site_fract_x
 _atom_site_fract_y
 _atom_site_fract_z
 _atom_site_occupancy
  Mg  Mg0  1  0.50000000  0.50000000  0.00000000  1
  Ti  Ti1  1  0.00000000  0.16768000  0.88621000  1
  Mn  Mn2  1  0.99359000  0.17958000  0.65954500  1
  V  V3  1  0.48207300  0.33879600  0.66127500  1
  Zn  Zn4  1  0.00000000  0.00000000  0.00000000  1
  Cr  Cr5  1  0.50000000  0.50000000  0.77241000  1
  Fe  Fe6  1  0.49905400  0.83037600  0.55624300  1
  Co  Co7  1  0.99744800  0.49329300  0.66101500  1
  Cu  Cu8  1  0.49773400  0.50893600  0.55596300  1
  Ni  Ni9  1  0.00000000  0.33232000  0.00000000  1
  Sb  Sb10  1  0.50000000  0.00000000  0.88621000  1
  Sb  Sb11  1  0.00000000  1.00000000  0.77241000  1
  Sb  Sb12  1  0.49748000  0.00787300  0.65790100  1
  Sb  Sb13  1  0.99894100  0.00037300  0.54675600  1
  Sb  Sb14  1  0.00000000  0.50000000  0.88621000  1
  Sb  Sb15  1  0.00000000  0.66768000  1.00000000  1
  Sb  Sb16  1  0.50000000  0.66768000  0.88621000  1
  Sb  Sb17  1  0.00000000  0.66768000  0.77241000  1
  Sb  Sb18  1  0.49996900  0.65874800  0.66319100  1
  Sb  Sb19  1  0.99962700  0.66298000  0.54697500  1
  Sb  Sb20  1  0.50000000  0.16768000  0.00000000  1
  Sb  Sb21  1  0.50000000  0.16768000  0.77241000  1
  Sb  Sb22  1  0.49924200  0.18605400  0.54698100  1
  Sb  Sb23  1  0.50000000  0.83232000  1.00000000  1
  Sb  Sb24  1  0.00000000  0.83232000  0.88621000  1
  Sb  Sb25  1  0.50000000  0.83232000  0.77241000  1
  Sb  Sb26  1  0.99866100  0.83457300  0.65897200  1
  Sb  Sb27  1  0.50000000  0.33232000  0.88621000  1
  Sb  Sb28  1  0.00000000  0.33232000  0.77241000  1
  Sb  Sb29  1  0.00026700  0.33807500  0.54901300  1
  Cl  Cl30  1  0.48303600  0.48671400  0.48121200  1
  O  O31  1  0.00000000  0.82836000  0.95506000  1
  O  O32  1  0.50000000  0.82836000  0.84126000  1
  O  O33  1  0.00019600  0.84474300  0.72934800  1
  O  O34  1  0.49462300  0.83028200  0.62283700  1
  O  O35  1  0.50000000  0.82836000  0.93115000  1
  O  O36  1  0.00000000  0.82836000  0.81736000  1
  O  O37  1  0.49515300  0.84029100  0.70563900  1
  O  O38  1  0.99856500  0.83246500  0.59146600  1
  O  O39  1  0.69747000  0.32836000  0.00000000  1
  O  O40  1  0.19747000  0.32836000  0.88621000  1
  O  O41  1  0.69747000  0.32836000  0.77241000  1
  O  O42  1  0.22113800  0.32874600  0.66377800  1
  O  O43  1  0.69575600  0.34193600  0.56106400  1
  O  O44  1  0.30253000  0.32836000  0.00000000  1
  O  O45  1  0.80253000  0.32836000  0.88621000  1
  O  O46  1  0.30253000  0.32836000  0.77241000  1
  O  O47  1  0.81291300  0.32250500  0.66270300  1
  O  O48  1  0.30237100  0.34031900  0.56352300  1
  O  O49  1  0.69747000  0.67164000  1.00000000  1
  O  O50  1  0.19747000  0.67164000  0.88621000  1
  O  O51  1  0.69747000  0.67164000  0.77241000  1
  O  O52  1  0.19084000  0.67038200  0.66441700  1
  O  O53  1  0.68262100  0.68546000  0.55436800  1
  O  O54  1  0.30253000  0.67164000  1.00000000  1
  O  O55  1  0.80253000  0.67164000  0.88621000  1
  O  O56  1  0.30253000  0.67164000  0.77241000  1
  O  O57  1  0.80609300  0.67210400  0.66442500  1
  O  O58  1  0.31495400  0.68545600  0.55522000  1
  O  O59  1  1.00000000  0.17164000  0.95506000  1
  O  O60  1  0.50000000  0.17164000  0.84126000  1
  O  O61  1  0.00021600  0.15531300  0.72933600  1
  O  O62  1  0.50423500  0.17328900  0.61814500  1
  O  O63  1  0.50000000  0.17164000  0.93115000  1
  O  O64  1  0.00000000  0.17164000  0.81736000  1
  O  O65  1  0.50358100  0.16653100  0.70410800  1
  O  O66  1  0.99711900  0.16282600  0.59199500  1
  O  O67  1  0.00000000  0.50000000  0.95668000  1
  O  O68  1  0.50000000  0.50000000  0.84289000  1
  O  O69  1  0.00049200  0.50002000  0.72830400  1
  O  O70  1  0.50715900  0.49348500  0.62311000  1
  O  O71  1  0.50000000  0.50000000  0.92952000  1
  O  O72  1  0.00000000  0.50000000  0.81573000  1
  O  O73  1  0.50525600  0.49268800  0.70763900  1
  O  O74  1  0.99970800  0.50626900  0.59351400  1
  O  O75  1  0.69034000  1.00000000  0.00000000  1
  O  O76  1  0.19034000  0.00000000  0.88621000  1
  O  O77  1  0.69034000  1.00000000  0.77241000  1
  O  O78  1  0.18772600  0.00571600  0.66068500  1
  O  O79  1  0.68807600  0.97199600  0.55457200  1
  O  O80  1  0.30966000  0.00000000  1.00000000  1
  O  O81  1  0.80966000  1.00000000  0.88621000  1
  O  O82  1  0.30966000  0.00000000  0.77241000  1
  O  O83  1  0.80315700  0.99920300  0.66117100  1
  O  O84  1  0.30981100  0.97210500  0.55487100  1
