# generated using pymatgen
data_MgTiMnVZnCrFeCoCuNiSb20ClO54
_symmetry_space_group_name_H-M   'P 1'
_cell_length_a   6.62676200
_cell_length_b   9.67375700
_cell_length_c   28.55088300
_cell_angle_alpha   90.05997700
_cell_angle_beta   89.87896000
_cell_angle_gamma   89.96337500
_symmetry_Int_Tables_number   1
_chemical_formula_structural   MgTiMnVZnCrFeCoCuNiSb20ClO54
_chemical_formula_sum
'Mg1 Ti1 Mn1 V1 Zn1 Cr1 Fe1 Co1 Cu1 Ni1 Sb20 Cl1 O54'
_cell_volume   1830.26845677
_cell_formula_units_Z   1
loop_
 _symmetry_equiv_pos_site_id
 _symmetry_equiv_pos_as_xyz
  1  'x, y, z'
loop_
 _atom_site_type_symbol
 _atom_site_label
 _atom_site_symmetry_multiplicity
 _atom_site_fract_x
 _atom_site_fract_y
 _atom_site_fract_z
 _atom_site_occupancy
  Mg  Mg0  1  0.00000000  0.16768000  0.88621000  1
  Ti  Ti1  1  0.00000000  0.66768000  1.00000000  1
  Mn  Mn2  1  0.49789100  0.12844000  0.53722900  1
  V  V3  1  0.00134400  0.51403100  0.66182200  1
  Zn  Zn4  1  0.00000000  0.50000000  0.88621000  1
  Cr  Cr5  1  0.50000000  0.66768000  0.88621000  1
  Fe  Fe6  1  0.00000000  0.33232000  0.77241000  1
  Co  Co7  1  0.50052200  0.83555000  0.54440700  1
  Cu  Cu8  1  0.50887000  0.41426000  0.52143300  1
  Ni  Ni9  1  0.50000000  1.00000000  0.88621000  1
  Sb  Sb10  1  0.00000000  0.00000000  0.00000000  1
  Sb  Sb11  1  1.00000000  1.00000000  0.77241000  1
  Sb  Sb12  1  0.49563000  0.00078500  0.65784100  1
  Sb  Sb13  1  0.99833400  0.01963800  0.53095000  1
  Sb  Sb14  1  0.50000000  0.50000000  0.00000000  1
  Sb  Sb15  1  0.50000000  0.50000000  0.77241000  1
  Sb  Sb16  1  1.00000000  0.66768000  0.77241000  1
  Sb  Sb17  1  0.50102200  0.64431900  0.61735400  1
  Sb  Sb18  1  0.00027600  0.66580300  0.54256300  1
  Sb  Sb19  1  0.50000000  0.16768000  0.00000000  1
  Sb  Sb20  1  0.50000000  0.16768000  0.77241000  1
  Sb  Sb21  1  0.00112700  0.17538900  0.65832300  1
  Sb  Sb22  1  0.50000000  0.83232000  0.00000000  1
  Sb  Sb23  1  0.00000000  0.83232000  0.88621000  1
  Sb  Sb24  1  0.50000000  0.83232000  0.77241000  1
  Sb  Sb25  1  0.97744100  0.83236100  0.65026100  1
  Sb  Sb26  1  0.00000000  0.33232000  1.00000000  1
  Sb  Sb27  1  0.50000000  0.33232000  0.88621000  1
  Sb  Sb28  1  0.50074900  0.33412700  0.65427200  1
  Sb  Sb29  1  0.00103800  0.33873600  0.53714000  1
  Cl  Cl30  1  0.43932700  0.57953200  0.47401600  1
  O  O31  1  0.00000000  0.82836000  0.95506000  1
  O  O32  1  0.50000000  0.82836000  0.84126000  1
  O  O33  1  0.00019600  0.84474300  0.72934800  1
  O  O34  1  0.55155400  0.86721300  0.61047400  1
  O  O35  1  0.50000000  0.82836000  0.93115000  1
  O  O36  1  1.00000000  0.82836000  0.81736000  1
  O  O37  1  0.50068300  0.84505100  0.70336300  1
  O  O38  1  0.99081300  0.86016900  0.57715200  1
  O  O39  1  0.69747000  0.32836000  1.00000000  1
  O  O40  1  0.19747000  0.32836000  0.88621000  1
  O  O41  1  0.69747000  0.32836000  0.77241000  1
  O  O42  1  0.19204400  0.33367800  0.65981200  1
  O  O43  1  0.70306800  0.26302900  0.52805900  1
  O  O44  1  0.30253000  0.32836000  1.00000000  1
  O  O45  1  0.80253000  0.32836000  0.88621000  1
  O  O46  1  0.30253000  0.32836000  0.77241000  1
  O  O47  1  0.80742400  0.33241400  0.66036600  1
  O  O48  1  0.29017000  0.26149600  0.52786800  1
  O  O49  1  0.69747000  0.67164000  0.00000000  1
  O  O50  1  0.19747000  0.67164000  0.88621000  1
  O  O51  1  0.69747000  0.67164000  0.77241000  1
  O  O52  1  0.18039500  0.64145600  0.66001400  1
  O  O53  1  0.68966800  0.68079500  0.55978300  1
  O  O54  1  0.30253000  0.67164000  0.00000000  1
  O  O55  1  0.80253000  0.67164000  0.88621000  1
  O  O56  1  0.30253000  0.67164000  0.77241000  1
  O  O57  1  0.80396700  0.62775000  0.65944400  1
  O  O58  1  0.30709000  0.70020900  0.56431100  1
  O  O59  1  0.00000000  0.17164000  0.95506000  1
  O  O60  1  0.50000000  0.17164000  0.84126000  1
  O  O61  1  0.00021600  0.15531300  0.72933600  1
  O  O62  1  0.49647900  0.16117200  0.61403300  1
  O  O63  1  0.50000000  0.17164000  0.93115000  1
  O  O64  1  0.00000000  0.17164000  0.81736000  1
  O  O65  1  0.49201000  0.16573400  0.70270600  1
  O  O66  1  0.99605500  0.16974900  0.58703300  1
  O  O67  1  0.00000000  0.50000000  0.95668000  1
  O  O68  1  0.50000000  0.50000000  0.84289000  1
  O  O69  1  0.00049200  0.50002000  0.72830400  1
  O  O70  1  0.49986800  0.44017700  0.59612200  1
  O  O71  1  0.50000000  0.50000000  0.92952000  1
  O  O72  1  0.00000000  0.50000000  0.81573000  1
  O  O73  1  0.49496900  0.48697600  0.70164500  1
  O  O74  1  0.00770900  0.49803200  0.59071100  1
  O  O75  1  0.69034000  0.00000000  0.00000000  1
  O  O76  1  0.19034000  1.00000000  0.88621000  1
  O  O77  1  0.69034000  1.00000000  0.77241000  1
  O  O78  1  0.18933100  0.00672000  0.65688200  1
  O  O79  1  0.68217300  0.97702100  0.52740800  1
  O  O80  1  0.30966000  0.00000000  0.00000000  1
  O  O81  1  0.80966000  1.00000000  0.88621000  1
  O  O82  1  0.30966000  1.00000000  0.77241000  1
  O  O83  1  0.80361000  0.01802000  0.66115800  1
  O  O84  1  0.31474700  0.97810400  0.53322300  1
