# generated using pymatgen
data_MgTiMnVZnCrFeCoCuNiSb20ClO54
_symmetry_space_group_name_H-M   'P 1'
_cell_length_a   6.67633800
_cell_length_b   9.50292000
_cell_length_c   28.76903600
_cell_angle_alpha   89.75686500
_cell_angle_beta   89.91238300
_cell_angle_gamma   89.86751100
_symmetry_Int_Tables_number   1
_chemical_formula_structural   MgTiMnVZnCrFeCoCuNiSb20ClO54
_chemical_formula_sum
'Mg1 Ti1 Mn1 V1 Zn1 Cr1 Fe1 Co1 Cu1 Ni1 Sb20 Cl1 O54'
_cell_volume   1825.21960773
_cell_formula_units_Z   1
loop_
 _symmetry_equiv_pos_site_id
 _symmetry_equiv_pos_as_xyz
  1  'x, y, z'
loop_
 _atom_site_type_symbol
 _atom_site_label
 _atom_site_symmetry_multiplicity
 _atom_site_fract_x
 _atom_site_fract_y
 _atom_site_fract_z
 _atom_site_occupancy
  Mg  Mg0  1  0.50000000  0.83232000  1.00000000  1
  Ti  Ti1  1  0.50000000  0.00000000  0.88621000  1
  Mn  Mn2  1  0.50000000  0.16768000  0.77241000  1
  V  V3  1  0.00000000  0.00000000  0.77241000  1
  Zn  Zn4  1  0.00000000  0.33232000  0.77241000  1
  Cr  Cr5  1  0.00000000  0.00000000  0.00000000  1
  Fe  Fe6  1  0.50000000  0.50000000  0.77241000  1
  Co  Co7  1  0.50305600  0.84041100  0.54679600  1
  Cu  Cu8  1  0.50291100  0.51591300  0.54356700  1
  Ni  Ni9  1  0.50000000  0.66768000  0.88621000  1
  Sb  Sb10  1  0.49929800  0.00520000  0.65590500  1
  Sb  Sb11  1  0.99469100  0.01729700  0.54367500  1
  Sb  Sb12  1  0.50000000  0.50000000  1.00000000  1
  Sb  Sb13  1  1.00000000  0.50000000  0.88621000  1
  Sb  Sb14  1  0.99582300  0.49758300  0.65597600  1
  Sb  Sb15  1  1.00000000  0.66768000  0.00000000  1
  Sb  Sb16  1  1.00000000  0.66768000  0.77241000  1
  Sb  Sb17  1  0.49854800  0.66607800  0.65691500  1
  Sb  Sb18  1  0.01650900  0.70077300  0.52971200  1
  Sb  Sb19  1  0.50000000  0.16768000  1.00000000  1
  Sb  Sb20  1  0.00000000  0.16768000  0.88621000  1
  Sb  Sb21  1  0.99755200  0.16404300  0.66223800  1
  Sb  Sb22  1  0.49265800  0.18432300  0.52961500  1
  Sb  Sb23  1  1.00000000  0.83232000  0.88621000  1
  Sb  Sb24  1  0.50000000  0.83232000  0.77241000  1
  Sb  Sb25  1  0.99951200  0.83471800  0.65826000  1
  Sb  Sb26  1  0.00000000  0.33232000  0.00000000  1
  Sb  Sb27  1  0.50000000  0.33232000  0.88621000  1
  Sb  Sb28  1  0.49728600  0.33260300  0.65797900  1
  Sb  Sb29  1  0.00025800  0.34721900  0.52741900  1
  Cl  Cl30  1  0.45326300  0.48186200  0.46852600  1
  O  O31  1  1.00000000  0.82836000  0.95506000  1
  O  O32  1  0.50000000  0.82836000  0.84126000  1
  O  O33  1  0.00019600  0.84474300  0.72934800  1
  O  O34  1  0.50616300  0.83378900  0.61534700  1
  O  O35  1  0.50000000  0.82836000  0.93115000  1
  O  O36  1  1.00000000  0.82836000  0.81736000  1
  O  O37  1  0.49540200  0.83425500  0.70273100  1
  O  O38  1  0.99418800  0.83978900  0.58843200  1
  O  O39  1  0.69747000  0.32836000  0.00000000  1
  O  O40  1  0.19747000  0.32836000  0.88621000  1
  O  O41  1  0.69747000  0.32836000  0.77241000  1
  O  O42  1  0.19848800  0.31942100  0.66359200  1
  O  O43  1  0.70188800  0.33227500  0.55063100  1
  O  O44  1  0.30253000  0.32836000  1.00000000  1
  O  O45  1  0.80253000  0.32836000  0.88621000  1
  O  O46  1  0.30253000  0.32836000  0.77241000  1
  O  O47  1  0.79626600  0.31928300  0.66458700  1
  O  O48  1  0.27917000  0.32238900  0.55587800  1
  O  O49  1  0.69747000  0.67164000  0.00000000  1
  O  O50  1  0.19747000  0.67164000  0.88621000  1
  O  O51  1  0.69747000  0.67164000  0.77241000  1
  O  O52  1  0.19993400  0.68140600  0.66239400  1
  O  O53  1  0.68651400  0.70618000  0.53970000  1
  O  O54  1  0.30253000  0.67164000  1.00000000  1
  O  O55  1  0.80253000  0.67164000  0.88621000  1
  O  O56  1  0.30253000  0.67164000  0.77241000  1
  O  O57  1  0.79699600  0.68357800  0.66435400  1
  O  O58  1  0.31595800  0.69315500  0.54694000  1
  O  O59  1  0.00000000  0.17164000  0.95506000  1
  O  O60  1  0.50000000  0.17164000  0.84126000  1
  O  O61  1  0.00021600  0.15531300  0.72933600  1
  O  O62  1  0.50181300  0.17084800  0.61255200  1
  O  O63  1  0.50000000  0.17164000  0.93115000  1
  O  O64  1  0.00000000  0.17164000  0.81736000  1
  O  O65  1  0.49778500  0.16403300  0.70403300  1
  O  O66  1  0.98591400  0.16518200  0.59381200  1
  O  O67  1  1.00000000  0.50000000  0.95668000  1
  O  O68  1  0.50000000  0.50000000  0.84289000  1
  O  O69  1  0.00049200  0.50002000  0.72830400  1
  O  O70  1  0.50484400  0.50208800  0.61347300  1
  O  O71  1  0.50000000  0.50000000  0.92952000  1
  O  O72  1  1.00000000  0.50000000  0.81573000  1
  O  O73  1  0.49795200  0.50197300  0.70213300  1
  O  O74  1  0.99062700  0.52426200  0.56532200  1
  O  O75  1  0.69034000  1.00000000  0.00000000  1
  O  O76  1  0.19034000  0.00000000  0.88621000  1
  O  O77  1  0.69034000  1.00000000  0.77241000  1
  O  O78  1  0.19357600  0.99791500  0.65856200  1
  O  O79  1  0.68608800  0.99504200  0.54678000  1
  O  O80  1  0.30966000  0.00000000  1.00000000  1
  O  O81  1  0.80966000  1.00000000  0.88621000  1
  O  O82  1  0.30966000  0.00000000  0.77241000  1
  O  O83  1  0.80405600  0.99661600  0.66043700  1
  O  O84  1  0.31302100  0.98461700  0.54787400  1
