# generated using pymatgen
data_MgTiMnVZnCrFeCoCuNiSb20ClO54
_symmetry_space_group_name_H-M   'P 1'
_cell_length_a   6.72668400
_cell_length_b   9.58129600
_cell_length_c   29.25903700
_cell_angle_alpha   90.19728900
_cell_angle_beta   89.98850700
_cell_angle_gamma   89.99577900
_symmetry_Int_Tables_number   1
_chemical_formula_structural   MgTiMnVZnCrFeCoCuNiSb20ClO54
_chemical_formula_sum
'Mg1 Ti1 Mn1 V1 Zn1 Cr1 Fe1 Co1 Cu1 Ni1 Sb20 Cl1 O54'
_cell_volume   1885.74396754
_cell_formula_units_Z   1
loop_
 _symmetry_equiv_pos_site_id
 _symmetry_equiv_pos_as_xyz
  1  'x, y, z'
loop_
 _atom_site_type_symbol
 _atom_site_label
 _atom_site_symmetry_multiplicity
 _atom_site_fract_x
 _atom_site_fract_y
 _atom_site_fract_z
 _atom_site_occupancy
  Mg  Mg0  1  0.00000000  1.00000000  0.22759000  1
  Ti  Ti1  1  0.00000000  0.00000000  0.00000000  1
  Mn  Mn2  1  0.99936900  0.51080900  0.33617900  1
  V  V3  1  0.50000000  0.16768000  0.22759000  1
  Zn  Zn4  1  0.49954800  0.99709100  0.33786100  1
  Cr  Cr5  1  0.50000000  0.33232000  0.11379000  1
  Fe  Fe6  1  0.49991500  0.67519800  0.34261900  1
  Co  Co7  1  0.00000000  0.33232000  0.22759000  1
  Cu  Cu8  1  0.49760300  0.50169000  0.44626000  1
  Ni  Ni9  1  0.99876200  0.35931700  0.43737800  1
  Sb  Sb10  1  0.50000000  1.00000000  0.11379000  1
  Sb  Sb11  1  0.99898800  0.00204400  0.43125600  1
  Sb  Sb12  1  0.50000000  0.50000000  1.00000000  1
  Sb  Sb13  1  0.00000000  0.50000000  0.11379000  1
  Sb  Sb14  1  0.50000000  0.50000000  0.22759000  1
  Sb  Sb15  1  0.00000000  0.33232000  0.00000000  1
  Sb  Sb16  1  0.49965100  0.33800000  0.33776300  1
  Sb  Sb17  1  0.50000000  0.83232000  1.00000000  1
  Sb  Sb18  1  0.00000000  0.83232000  0.11379000  1
  Sb  Sb19  1  0.50000000  0.83232000  0.22759000  1
  Sb  Sb20  1  0.99935400  0.82711200  0.33737200  1
  Sb  Sb21  1  0.49842800  0.81869700  0.45169700  1
  Sb  Sb22  1  0.50000000  0.16768000  1.00000000  1
  Sb  Sb23  1  0.00000000  0.16768000  0.11379000  1
  Sb  Sb24  1  0.99924300  0.17247500  0.33438700  1
  Sb  Sb25  1  0.49978100  0.20399800  0.45224100  1
  Sb  Sb26  1  1.00000000  0.66768000  0.00000000  1
  Sb  Sb27  1  0.50000000  0.66768000  0.11379000  1
  Sb  Sb28  1  0.00000000  0.66768000  0.22759000  1
  Sb  Sb29  1  0.99864900  0.62654500  0.45670900  1
  Cl  Cl30  1  0.49335700  0.49636500  0.52313600  1
  O  O31  1  0.00000000  0.17164000  0.04494000  1
  O  O32  1  0.50000000  0.17164000  0.15874000  1
  O  O33  1  0.00019600  0.15525700  0.27065200  1
  O  O34  1  0.50015800  0.17881200  0.38211400  1
  O  O35  1  0.50000000  0.17164000  0.06885000  1
  O  O36  1  0.00000000  0.17164000  0.18264000  1
  O  O37  1  0.49923800  0.17683000  0.29221200  1
  O  O38  1  0.99753300  0.18598200  0.40268300  1
  O  O39  1  0.69747000  0.67164000  1.00000000  1
  O  O40  1  0.19747000  0.67164000  0.11379000  1
  O  O41  1  0.69747000  0.67164000  0.22759000  1
  O  O42  1  0.18698500  0.66134500  0.33515800  1
  O  O43  1  0.69609500  0.65837000  0.44563200  1
  O  O44  1  0.30253000  0.67164000  1.00000000  1
  O  O45  1  0.80253000  0.67164000  0.11379000  1
  O  O46  1  0.30253000  0.67164000  0.22759000  1
  O  O47  1  0.81150700  0.66169200  0.33480500  1
  O  O48  1  0.30056700  0.65895300  0.44461700  1
  O  O49  1  0.69747000  0.32836000  1.00000000  1
  O  O50  1  0.19747000  0.32836000  0.11379000  1
  O  O51  1  0.69747000  0.32836000  0.22759000  1
  O  O52  1  0.19041400  0.34194600  0.33612400  1
  O  O53  1  0.72371800  0.34957500  0.44764100  1
  O  O54  1  0.30253000  0.32836000  1.00000000  1
  O  O55  1  0.80253000  0.32836000  0.11379000  1
  O  O56  1  0.30253000  0.32836000  0.22759000  1
  O  O57  1  0.80881900  0.34163600  0.33593000  1
  O  O58  1  0.27332900  0.34888600  0.44675600  1
  O  O59  1  1.00000000  0.82836000  0.04494000  1
  O  O60  1  0.50000000  0.82836000  0.15874000  1
  O  O61  1  0.00021600  0.84468700  0.27066400  1
  O  O62  1  0.50046600  0.83180600  0.38350700  1
  O  O63  1  0.50000000  0.82836000  0.06885000  1
  O  O64  1  0.00000000  0.82836000  0.18264000  1
  O  O65  1  0.49861600  0.82211000  0.29499300  1
  O  O66  1  0.99647200  0.81043500  0.40665100  1
  O  O67  1  1.00000000  0.50000000  0.04332000  1
  O  O68  1  0.50000000  0.50000000  0.15711000  1
  O  O69  1  0.00049200  0.49998000  0.27169600  1
  O  O70  1  0.50010200  0.50341500  0.37866600  1
  O  O71  1  0.50000000  0.50000000  0.07048000  1
  O  O72  1  0.00000000  0.50000000  0.18427000  1
  O  O73  1  0.49965600  0.50507700  0.29475900  1
  O  O74  1  0.99525100  0.51287700  0.39890200  1
  O  O75  1  0.69034000  1.00000000  1.00000000  1
  O  O76  1  0.19034000  1.00000000  0.11379000  1
  O  O77  1  0.69034000  1.00000000  0.22759000  1
  O  O78  1  0.18519100  0.99689600  0.34686400  1
  O  O79  1  0.74217900  0.00020300  0.45900200  1
  O  O80  1  0.30966000  0.00000000  1.00000000  1
  O  O81  1  0.80966000  1.00000000  0.11379000  1
  O  O82  1  0.30966000  1.00000000  0.22759000  1
  O  O83  1  0.81340900  0.99704600  0.34617100  1
  O  O84  1  0.25532100  0.99860800  0.45906900  1
