# generated using pymatgen
data_MgTiMnVZnCrFeCoCuNiSb20ClO54
_symmetry_space_group_name_H-M   'P 1'
_cell_length_a   6.71885600
_cell_length_b   9.59729300
_cell_length_c   28.64957400
_cell_angle_alpha   89.82225100
_cell_angle_beta   89.97274000
_cell_angle_gamma   89.89760600
_symmetry_Int_Tables_number   1
_chemical_formula_structural   MgTiMnVZnCrFeCoCuNiSb20ClO54
_chemical_formula_sum
'Mg1 Ti1 Mn1 V1 Zn1 Cr1 Fe1 Co1 Cu1 Ni1 Sb20 Cl1 O54'
_cell_volume   1847.39355567
_cell_formula_units_Z   1
loop_
 _symmetry_equiv_pos_site_id
 _symmetry_equiv_pos_as_xyz
  1  'x, y, z'
loop_
 _atom_site_type_symbol
 _atom_site_label
 _atom_site_symmetry_multiplicity
 _atom_site_fract_x
 _atom_site_fract_y
 _atom_site_fract_z
 _atom_site_occupancy
  Mg  Mg0  1  0.50000000  0.00000000  0.11379000  1
  Ti  Ti1  1  0.50000000  0.50000000  1.00000000  1
  Mn  Mn2  1  0.99245000  0.34086500  0.44327400  1
  V  V3  1  0.99888700  0.50458100  0.33879400  1
  Zn  Zn4  1  0.50000000  0.66768000  0.11379000  1
  Cr  Cr5  1  0.00518700  0.01261300  0.45344300  1
  Fe  Fe6  1  0.00000000  0.33232000  0.22759000  1
  Co  Co7  1  0.49866900  0.00201400  0.34222900  1
  Cu  Cu8  1  0.50599600  0.50647300  0.45450500  1
  Ni  Ni9  1  0.50000000  0.33232000  0.11379000  1
  Sb  Sb10  1  0.00000000  0.00000000  0.00000000  1
  Sb  Sb11  1  0.00000000  0.00000000  0.22759000  1
  Sb  Sb12  1  1.00000000  0.50000000  0.11379000  1
  Sb  Sb13  1  0.50000000  0.50000000  0.22759000  1
  Sb  Sb14  1  1.00000000  0.66768000  0.00000000  1
  Sb  Sb15  1  1.00000000  0.66768000  0.22759000  1
  Sb  Sb16  1  0.49924000  0.66930500  0.34750300  1
  Sb  Sb17  1  0.00892700  0.65264700  0.45833400  1
  Sb  Sb18  1  0.50000000  0.16768000  1.00000000  1
  Sb  Sb19  1  0.00000000  0.16768000  0.11379000  1
  Sb  Sb20  1  0.50000000  0.16768000  0.22759000  1
  Sb  Sb21  1  0.99971600  0.16610300  0.34071500  1
  Sb  Sb22  1  0.49231700  0.20000900  0.46049100  1
  Sb  Sb23  1  0.50000000  0.83232000  1.00000000  1
  Sb  Sb24  1  1.00000000  0.83232000  0.11379000  1
  Sb  Sb25  1  0.50000000  0.83232000  0.22759000  1
  Sb  Sb26  1  0.99885200  0.83649200  0.34713800  1
  Sb  Sb27  1  0.50760900  0.81041100  0.45896400  1
  Sb  Sb28  1  0.00000000  0.33232000  0.00000000  1
  Sb  Sb29  1  0.49927900  0.32778400  0.34253900  1
  Cl  Cl30  1  0.52307200  0.60959500  0.52743900  1
  O  O31  1  1.00000000  0.82836000  0.04494000  1
  O  O32  1  0.50000000  0.82836000  0.15874000  1
  O  O33  1  0.99980400  0.84474300  0.27065200  1
  O  O34  1  0.49497300  0.84654400  0.38551300  1
  O  O35  1  0.50000000  0.82836000  0.06885000  1
  O  O36  1  1.00000000  0.82836000  0.18264000  1
  O  O37  1  0.50060200  0.82902600  0.29718200  1
  O  O38  1  0.02746100  0.85178900  0.42317700  1
  O  O39  1  0.30253000  0.32836000  1.00000000  1
  O  O40  1  0.80253000  0.32836000  0.11379000  1
  O  O41  1  0.30253000  0.32836000  0.22759000  1
  O  O42  1  0.80995000  0.33341600  0.34030600  1
  O  O43  1  0.27008700  0.33926300  0.45808200  1
  O  O44  1  0.69747000  0.32836000  1.00000000  1
  O  O45  1  0.19747000  0.32836000  0.11379000  1
  O  O46  1  0.69747000  0.32836000  0.22759000  1
  O  O47  1  0.18895200  0.33344800  0.34001700  1
  O  O48  1  0.71211700  0.34770400  0.45820300  1
  O  O49  1  0.30253000  0.67164000  1.00000000  1
  O  O50  1  0.80253000  0.67164000  0.11379000  1
  O  O51  1  0.30253000  0.67164000  0.22759000  1
  O  O52  1  0.80621900  0.65073300  0.33610500  1
  O  O53  1  0.31119800  0.66346700  0.43840000  1
  O  O54  1  0.69747000  0.67164000  1.00000000  1
  O  O55  1  0.19747000  0.67164000  0.11379000  1
  O  O56  1  0.69747000  0.67164000  0.22759000  1
  O  O57  1  0.19312700  0.65271300  0.33679200  1
  O  O58  1  0.72056900  0.68330300  0.43530600  1
  O  O59  1  0.00000000  0.17164000  0.04494000  1
  O  O60  1  0.50000000  0.17164000  0.15874000  1
  O  O61  1  0.99978400  0.15531300  0.27066400  1
  O  O62  1  0.49453500  0.17292600  0.38911400  1
  O  O63  1  0.50000000  0.17164000  0.06885000  1
  O  O64  1  0.00000000  0.17164000  0.18264000  1
  O  O65  1  0.50082000  0.16546900  0.29769600  1
  O  O66  1  0.99409400  0.15793200  0.41308100  1
  O  O67  1  1.00000000  0.50000000  0.04332000  1
  O  O68  1  0.50000000  0.50000000  0.15711000  1
  O  O69  1  0.99950800  0.50002000  0.27169600  1
  O  O70  1  0.50600800  0.48876000  0.38559000  1
  O  O71  1  0.50000000  0.50000000  0.07048000  1
  O  O72  1  1.00000000  0.50000000  0.18427000  1
  O  O73  1  0.49802500  0.50000700  0.29732300  1
  O  O74  1  0.00363800  0.51067100  0.40499600  1
  O  O75  1  0.30966000  0.00000000  1.00000000  1
  O  O76  1  0.80966000  0.00000000  0.11379000  1
  O  O77  1  0.30966000  0.00000000  0.22759000  1
  O  O78  1  0.80138300  0.00726100  0.34250700  1
  O  O79  1  0.21014600  0.02855800  0.48343800  1
  O  O80  1  0.69034000  0.00000000  1.00000000  1
  O  O81  1  0.19034000  0.00000000  0.11379000  1
  O  O82  1  0.69034000  0.00000000  0.22759000  1
  O  O83  1  0.19592500  0.00613200  0.34162200  1
  O  O84  1  0.79435000  0.00675000  0.48131700  1
