# generated using pymatgen
data_MgTiMnVZnCrFeCoCuNiSb20ClO54
_symmetry_space_group_name_H-M   'P 1'
_cell_length_a   6.67457900
_cell_length_b   9.60536700
_cell_length_c   28.56080400
_cell_angle_alpha   89.68176100
_cell_angle_beta   89.94010700
_cell_angle_gamma   89.99950700
_symmetry_Int_Tables_number   1
_chemical_formula_structural   MgTiMnVZnCrFeCoCuNiSb20ClO54
_chemical_formula_sum
'Mg1 Ti1 Mn1 V1 Zn1 Cr1 Fe1 Co1 Cu1 Ni1 Sb20 Cl1 O54'
_cell_volume   1831.05476216
_cell_formula_units_Z   1
loop_
 _symmetry_equiv_pos_site_id
 _symmetry_equiv_pos_as_xyz
  1  'x, y, z'
loop_
 _atom_site_type_symbol
 _atom_site_label
 _atom_site_symmetry_multiplicity
 _atom_site_fract_x
 _atom_site_fract_y
 _atom_site_fract_z
 _atom_site_occupancy
  Mg  Mg0  1  0.99903100  0.50085200  0.34180100  1
  Ti  Ti1  1  0.00000000  0.83232000  0.11379000  1
  Mn  Mn2  1  0.50000000  0.16768000  0.22759000  1
  V  V3  1  0.00000000  0.33232000  0.00000000  1
  Zn  Zn4  1  0.50000000  1.00000000  0.11379000  1
  Cr  Cr5  1  0.00049700  0.33287000  0.44649100  1
  Fe  Fe6  1  0.49950400  0.99453200  0.34083100  1
  Co  Co7  1  0.50000000  0.66768000  0.11379000  1
  Cu  Cu8  1  0.49473900  0.48540800  0.45450200  1
  Ni  Ni9  1  0.00000000  0.50000000  0.11379000  1
  Sb  Sb10  1  0.00000000  0.00000000  0.00000000  1
  Sb  Sb11  1  0.00000000  0.00000000  0.22759000  1
  Sb  Sb12  1  0.99697200  0.00260900  0.46540100  1
  Sb  Sb13  1  0.50000000  0.50000000  0.00000000  1
  Sb  Sb14  1  0.50000000  0.50000000  0.22759000  1
  Sb  Sb15  1  0.50000000  0.33232000  0.11379000  1
  Sb  Sb16  1  0.00000000  0.33232000  0.22759000  1
  Sb  Sb17  1  0.49981200  0.32040800  0.33886100  1
  Sb  Sb18  1  0.50000000  0.83232000  0.00000000  1
  Sb  Sb19  1  0.50000000  0.83232000  0.22759000  1
  Sb  Sb20  1  0.99899100  0.83342800  0.34535800  1
  Sb  Sb21  1  0.49763400  0.80154700  0.46161800  1
  Sb  Sb22  1  0.50000000  0.16768000  0.00000000  1
  Sb  Sb23  1  0.00000000  0.16768000  0.11379000  1
  Sb  Sb24  1  0.99928200  0.16357100  0.34291600  1
  Sb  Sb25  1  0.49841200  0.16885300  0.45652200  1
  Sb  Sb26  1  0.00000000  0.66768000  0.00000000  1
  Sb  Sb27  1  0.00000000  0.66768000  0.22759000  1
  Sb  Sb28  1  0.49835100  0.66857500  0.35399600  1
  Sb  Sb29  1  0.99959800  0.65334400  0.45792400  1
  Cl  Cl30  1  0.49321300  0.54069800  0.52810500  1
  O  O31  1  0.00000000  0.17164000  0.04494000  1
  O  O32  1  0.50000000  0.17164000  0.15874000  1
  O  O33  1  0.00019600  0.15525700  0.27065200  1
  O  O34  1  0.50037800  0.16640200  0.38530800  1
  O  O35  1  0.50000000  0.17164000  0.06885000  1
  O  O36  1  0.00000000  0.17164000  0.18264000  1
  O  O37  1  0.49889500  0.16167900  0.29459900  1
  O  O38  1  0.99442000  0.16704700  0.41391100  1
  O  O39  1  0.69747000  0.67164000  0.00000000  1
  O  O40  1  0.19747000  0.67164000  0.11379000  1
  O  O41  1  0.69747000  0.67164000  0.22759000  1
  O  O42  1  0.19040200  0.67625000  0.33966700  1
  O  O43  1  0.70244300  0.66241500  0.43627500  1
  O  O44  1  0.30253000  0.67164000  0.00000000  1
  O  O45  1  0.80253000  0.67164000  0.11379000  1
  O  O46  1  0.30253000  0.67164000  0.22759000  1
  O  O47  1  0.80743900  0.67635600  0.34022100  1
  O  O48  1  0.29517100  0.66169200  0.43461600  1
  O  O49  1  0.69747000  0.32836000  0.00000000  1
  O  O50  1  0.19747000  0.32836000  0.11379000  1
  O  O51  1  0.69747000  0.32836000  0.22759000  1
  O  O52  1  0.19176800  0.32180700  0.33978500  1
  O  O53  1  0.79442600  0.33202600  0.47741300  1
  O  O54  1  0.30253000  0.32836000  0.00000000  1
  O  O55  1  0.80253000  0.32836000  0.11379000  1
  O  O56  1  0.30253000  0.32836000  0.22759000  1
  O  O57  1  0.80743800  0.32207700  0.33929700  1
  O  O58  1  0.21760900  0.33052800  0.47379300  1
  O  O59  1  0.00000000  0.82836000  0.04494000  1
  O  O60  1  0.50000000  0.82836000  0.15874000  1
  O  O61  1  0.00021600  0.84468700  0.27066400  1
  O  O62  1  0.49963600  0.85094800  0.38867900  1
  O  O63  1  0.50000000  0.82836000  0.06885000  1
  O  O64  1  0.00000000  0.82836000  0.18264000  1
  O  O65  1  0.49916300  0.82954600  0.29803900  1
  O  O66  1  0.99786400  0.84404800  0.41634900  1
  O  O67  1  0.00000000  0.50000000  0.04332000  1
  O  O68  1  0.50000000  0.50000000  0.15711000  1
  O  O69  1  0.00049200  0.49998000  0.27169600  1
  O  O70  1  0.50093100  0.46916200  0.38721600  1
  O  O71  1  0.50000000  0.50000000  0.07048000  1
  O  O72  1  0.00000000  0.50000000  0.18427000  1
  O  O73  1  0.49917800  0.50003400  0.29882700  1
  O  O74  1  0.99734300  0.48980000  0.41238400  1
  O  O75  1  0.69034000  0.00000000  1.00000000  1
  O  O76  1  0.19034000  1.00000000  0.11379000  1
  O  O77  1  0.69034000  0.00000000  0.22759000  1
  O  O78  1  0.19028200  0.99943500  0.34164900  1
  O  O79  1  0.69431100  0.01007600  0.45320500  1
  O  O80  1  0.30966000  1.00000000  0.00000000  1
  O  O81  1  0.80966000  0.00000000  0.11379000  1
  O  O82  1  0.30966000  1.00000000  0.22759000  1
  O  O83  1  0.80838000  0.99950900  0.34108100  1
  O  O84  1  0.29821800  0.01456500  0.45279900  1
