# generated using pymatgen
data_MgTiMnVZnCrFeCoCuNiSb20ClO54
_symmetry_space_group_name_H-M   'P 1'
_cell_length_a   6.65283500
_cell_length_b   9.64350200
_cell_length_c   28.81900000
_cell_angle_alpha   89.98712700
_cell_angle_beta   89.98603000
_cell_angle_gamma   89.99734600
_symmetry_Int_Tables_number   1
_chemical_formula_structural   MgTiMnVZnCrFeCoCuNiSb20ClO54
_chemical_formula_sum
'Mg1 Ti1 Mn1 V1 Zn1 Cr1 Fe1 Co1 Cu1 Ni1 Sb20 Cl1 O54'
_cell_volume   1848.92974801
_cell_formula_units_Z   1
loop_
 _symmetry_equiv_pos_site_id
 _symmetry_equiv_pos_as_xyz
  1  'x, y, z'
loop_
 _atom_site_type_symbol
 _atom_site_label
 _atom_site_symmetry_multiplicity
 _atom_site_fract_x
 _atom_site_fract_y
 _atom_site_fract_z
 _atom_site_occupancy
  Mg  Mg0  1  0.00064700  0.84742500  0.34138900  1
  Ti  Ti1  1  1.00000000  0.33232000  0.22759000  1
  Mn  Mn2  1  0.00180900  0.68782800  0.44238100  1
  V  V3  1  0.00137500  0.17292200  0.33778000  1
  Zn  Zn4  1  0.50000000  0.00000000  0.11379000  1
  Cr  Cr5  1  0.00030900  0.01707700  0.44386000  1
  Fe  Fe6  1  1.00000000  0.33232000  0.00000000  1
  Co  Co7  1  0.00000000  0.83232000  0.11379000  1
  Cu  Cu8  1  0.49784500  0.51326300  0.46006700  1
  Ni  Ni9  1  0.00000000  0.50000000  0.11379000  1
  Sb  Sb10  1  0.00000000  0.00000000  0.00000000  1
  Sb  Sb11  1  0.00000000  0.00000000  0.22759000  1
  Sb  Sb12  1  0.50061000  0.00721300  0.34428800  1
  Sb  Sb13  1  0.50000000  0.50000000  1.00000000  1
  Sb  Sb14  1  0.50000000  0.50000000  0.22759000  1
  Sb  Sb15  1  0.00032600  0.50025600  0.34206400  1
  Sb  Sb16  1  0.50000000  0.33232000  0.11379000  1
  Sb  Sb17  1  0.50477400  0.32617600  0.36972100  1
  Sb  Sb18  1  0.99935500  0.33435500  0.45486800  1
  Sb  Sb19  1  0.50000000  0.83232000  1.00000000  1
  Sb  Sb20  1  0.50000000  0.83232000  0.22759000  1
  Sb  Sb21  1  0.50189000  0.82465100  0.45883200  1
  Sb  Sb22  1  0.50000000  0.16768000  1.00000000  1
  Sb  Sb23  1  1.00000000  0.16768000  0.11379000  1
  Sb  Sb24  1  0.50000000  0.16768000  0.22759000  1
  Sb  Sb25  1  0.49817800  0.18708000  0.47118700  1
  Sb  Sb26  1  0.00000000  0.66768000  0.00000000  1
  Sb  Sb27  1  0.50000000  0.66768000  0.11379000  1
  Sb  Sb28  1  0.00000000  0.66768000  0.22759000  1
  Sb  Sb29  1  0.50050600  0.66199000  0.34259500  1
  Cl  Cl30  1  0.49644700  0.42644700  0.53078600  1
  O  O31  1  1.00000000  0.17164000  0.04494000  1
  O  O32  1  0.50000000  0.17164000  0.15874000  1
  O  O33  1  0.00019600  0.15525700  0.27065200  1
  O  O34  1  0.50066700  0.08929500  0.40661800  1
  O  O35  1  0.50000000  0.17164000  0.06885000  1
  O  O36  1  1.00000000  0.17164000  0.18264000  1
  O  O37  1  0.50145600  0.15849700  0.29580100  1
  O  O38  1  0.99834200  0.16811800  0.40713200  1
  O  O39  1  0.69747000  0.67164000  0.00000000  1
  O  O40  1  0.19747000  0.67164000  0.11379000  1
  O  O41  1  0.69747000  0.67164000  0.22759000  1
  O  O42  1  0.19270300  0.66536700  0.34197900  1
  O  O43  1  0.72487200  0.68444500  0.45897600  1
  O  O44  1  0.30253000  0.67164000  1.00000000  1
  O  O45  1  0.80253000  0.67164000  0.11379000  1
  O  O46  1  0.30253000  0.67164000  0.22759000  1
  O  O47  1  0.80810800  0.66527100  0.34156400  1
  O  O48  1  0.27920200  0.68364300  0.45917100  1
  O  O49  1  0.69747000  0.32836000  0.00000000  1
  O  O50  1  0.19747000  0.32836000  0.11379000  1
  O  O51  1  0.69747000  0.32836000  0.22759000  1
  O  O52  1  0.18116900  0.32939300  0.34053800  1
  O  O53  1  0.68876600  0.32328500  0.43741200  1
  O  O54  1  0.30253000  0.32836000  1.00000000  1
  O  O55  1  0.80253000  0.32836000  0.11379000  1
  O  O56  1  0.30253000  0.32836000  0.22759000  1
  O  O57  1  0.81629000  0.33265400  0.34062200  1
  O  O58  1  0.30780400  0.32291000  0.43786400  1
  O  O59  1  0.00000000  0.82836000  0.04494000  1
  O  O60  1  0.50000000  0.82836000  0.15874000  1
  O  O61  1  0.00021600  0.84468700  0.27066400  1
  O  O62  1  0.50198400  0.82728800  0.38545800  1
  O  O63  1  0.50000000  0.82836000  0.06885000  1
  O  O64  1  0.00000000  0.82836000  0.18264000  1
  O  O65  1  0.50054400  0.83348800  0.29888400  1
  O  O66  1  0.00245800  0.86119400  0.41335000  1
  O  O67  1  0.00000000  0.50000000  0.04332000  1
  O  O68  1  0.50000000  0.50000000  0.15711000  1
  O  O69  1  0.00049200  0.49998000  0.27169600  1
  O  O70  1  0.50233500  0.52776700  0.39267600  1
  O  O71  1  0.50000000  0.50000000  0.07048000  1
  O  O72  1  0.00000000  0.50000000  0.18427000  1
  O  O73  1  0.49799300  0.50638400  0.29857700  1
  O  O74  1  0.00059600  0.50211400  0.41286900  1
  O  O75  1  0.69034000  1.00000000  0.00000000  1
  O  O76  1  0.19034000  0.00000000  0.11379000  1
  O  O77  1  0.69034000  1.00000000  0.22759000  1
  O  O78  1  0.19969400  0.01453000  0.34119200  1
  O  O79  1  0.79446100  0.02685700  0.47557700  1
  O  O80  1  0.30966000  0.00000000  1.00000000  1
  O  O81  1  0.80966000  1.00000000  0.11379000  1
  O  O82  1  0.30966000  0.00000000  0.22759000  1
  O  O83  1  0.80222100  0.01484600  0.34129700  1
  O  O84  1  0.20584100  0.02861000  0.47561100  1
