# generated using pymatgen
data_MgTiMnVZnCrFeCoCuNiSb20ClO54
_symmetry_space_group_name_H-M   'P 1'
_cell_length_a   6.67997900
_cell_length_b   9.51953900
_cell_length_c   28.72640500
_cell_angle_alpha   90.04350200
_cell_angle_beta   89.98293400
_cell_angle_gamma   89.97443200
_symmetry_Int_Tables_number   1
_chemical_formula_structural   MgTiMnVZnCrFeCoCuNiSb20ClO54
_chemical_formula_sum
'Mg1 Ti1 Mn1 V1 Zn1 Cr1 Fe1 Co1 Cu1 Ni1 Sb20 Cl1 O54'
_cell_volume   1826.72051429
_cell_formula_units_Z   1
loop_
 _symmetry_equiv_pos_site_id
 _symmetry_equiv_pos_as_xyz
  1  'x, y, z'
loop_
 _atom_site_type_symbol
 _atom_site_label
 _atom_site_symmetry_multiplicity
 _atom_site_fract_x
 _atom_site_fract_y
 _atom_site_fract_z
 _atom_site_occupancy
  Mg  Mg0  1  0.00254200  0.50445100  0.65658700  1
  Ti  Ti1  1  0.49984100  0.17083400  0.55327900  1
  Mn  Mn2  1  0.00206200  0.83072100  0.66035200  1
  V  V3  1  0.00000000  0.00000000  0.00000000  1
  Zn  Zn4  1  0.50000000  0.00000000  0.88621000  1
  Cr  Cr5  1  0.49969800  0.99685500  0.66045600  1
  Fe  Fe6  1  1.00000000  0.00000000  0.77241000  1
  Co  Co7  1  0.50000000  0.33232000  0.88621000  1
  Cu  Cu8  1  0.50053600  0.49486700  0.54729100  1
  Ni  Ni9  1  1.00000000  0.50000000  0.88621000  1
  Sb  Sb10  1  0.00181200  0.99260700  0.54055000  1
  Sb  Sb11  1  0.50000000  0.50000000  1.00000000  1
  Sb  Sb12  1  0.50000000  0.50000000  0.77241000  1
  Sb  Sb13  1  1.00000000  0.33232000  1.00000000  1
  Sb  Sb14  1  0.00000000  0.33232000  0.77241000  1
  Sb  Sb15  1  0.49940500  0.32820500  0.65843000  1
  Sb  Sb16  1  0.99952300  0.32722700  0.54020600  1
  Sb  Sb17  1  0.50000000  0.83232000  1.00000000  1
  Sb  Sb18  1  0.00000000  0.83232000  0.88621000  1
  Sb  Sb19  1  0.50000000  0.83232000  0.77241000  1
  Sb  Sb20  1  0.50270500  0.81824500  0.53844100  1
  Sb  Sb21  1  0.50000000  0.16768000  1.00000000  1
  Sb  Sb22  1  1.00000000  0.16768000  0.88621000  1
  Sb  Sb23  1  0.50000000  0.16768000  0.77241000  1
  Sb  Sb24  1  0.99981600  0.15614200  0.65904500  1
  Sb  Sb25  1  0.00000000  0.66768000  1.00000000  1
  Sb  Sb26  1  0.50000000  0.66768000  0.88621000  1
  Sb  Sb27  1  1.00000000  0.66768000  0.77241000  1
  Sb  Sb28  1  0.50343300  0.67842600  0.64901300  1
  Sb  Sb29  1  0.99635300  0.66444800  0.54613600  1
  Cl  Cl30  1  0.52725300  0.55690000  0.47193100  1
  O  O31  1  0.00000000  0.17164000  0.95506000  1
  O  O32  1  0.50000000  0.17164000  0.84126000  1
  O  O33  1  0.99980400  0.15525700  0.72934800  1
  O  O34  1  0.49597300  0.15752200  0.61850100  1
  O  O35  1  0.50000000  0.17164000  0.93115000  1
  O  O36  1  0.00000000  0.17164000  0.81736000  1
  O  O37  1  0.50160900  0.16474300  0.70400000  1
  O  O38  1  0.00420100  0.16148300  0.58797200  1
  O  O39  1  0.30253000  0.67164000  1.00000000  1
  O  O40  1  0.80253000  0.67164000  0.88621000  1
  O  O41  1  0.30253000  0.67164000  0.77241000  1
  O  O42  1  0.80861400  0.68076900  0.65986900  1
  O  O43  1  0.30534700  0.66598500  0.56014900  1
  O  O44  1  0.69747000  0.67164000  1.00000000  1
  O  O45  1  0.19747000  0.67164000  0.88621000  1
  O  O46  1  0.69747000  0.67164000  0.77241000  1
  O  O47  1  0.19626900  0.68113100  0.65932500  1
  O  O48  1  0.69215100  0.66666667  0.56571600  1
  O  O49  1  0.30253000  0.32836000  1.00000000  1
  O  O50  1  0.80253000  0.32836000  0.88621000  1
  O  O51  1  0.30253000  0.32836000  0.77241000  1
  O  O52  1  0.80437900  0.32166000  0.65999400  1
  O  O53  1  0.31294200  0.32318800  0.54503400  1
  O  O54  1  0.69747000  0.32836000  1.00000000  1
  O  O55  1  0.19747000  0.32836000  0.88621000  1
  O  O56  1  0.69747000  0.32836000  0.77241000  1
  O  O57  1  0.19462400  0.32164600  0.66090600  1
  O  O58  1  0.68636400  0.32475000  0.54784300  1
  O  O59  1  0.00000000  0.82836000  0.95506000  1
  O  O60  1  0.50000000  0.82836000  0.84126000  1
  O  O61  1  0.99978400  0.84468700  0.72933600  1
  O  O62  1  0.49699000  0.85770200  0.61248900  1
  O  O63  1  0.50000000  0.82836000  0.93115000  1
  O  O64  1  0.00000000  0.82836000  0.81736000  1
  O  O65  1  0.50166900  0.83142800  0.70221800  1
  O  O66  1  0.00281300  0.83956700  0.59105300  1
  O  O67  1  0.00000000  0.50000000  0.95668000  1
  O  O68  1  0.50000000  0.50000000  0.84289000  1
  O  O69  1  0.99950800  0.49998000  0.72830400  1
  O  O70  1  0.49207600  0.48920600  0.61529900  1
  O  O71  1  0.50000000  0.50000000  0.92952000  1
  O  O72  1  0.00000000  0.50000000  0.81573000  1
  O  O73  1  0.50203300  0.50232200  0.70158400  1
  O  O74  1  0.00375100  0.48839300  0.58569200  1
  O  O75  1  0.30966000  1.00000000  1.00000000  1
  O  O76  1  0.80966000  0.00000000  0.88621000  1
  O  O77  1  0.30966000  1.00000000  0.77241000  1
  O  O78  1  0.80704700  0.99294600  0.65939200  1
  O  O79  1  0.30946500  0.02736300  0.54198700  1
  O  O80  1  0.69034000  0.00000000  1.00000000  1
  O  O81  1  0.19034000  1.00000000  0.88621000  1
  O  O82  1  0.69034000  0.00000000  0.77241000  1
  O  O83  1  0.19375500  0.99317700  0.66010500  1
  O  O84  1  0.69582200  0.03271200  0.54285500  1
