# generated using pymatgen
data_MgTiMnVZnCrFeCoCuNiSb20ClO54
_symmetry_space_group_name_H-M   'P 1'
_cell_length_a   6.73287100
_cell_length_b   9.46853700
_cell_length_c   29.26621500
_cell_angle_alpha   89.67912600
_cell_angle_beta   89.78035900
_cell_angle_gamma   89.64536300
_symmetry_Int_Tables_number   1
_chemical_formula_structural   MgTiMnVZnCrFeCoCuNiSb20ClO54
_chemical_formula_sum
'Mg1 Ti1 Mn1 V1 Zn1 Cr1 Fe1 Co1 Cu1 Ni1 Sb20 Cl1 O54'
_cell_volume   1865.65557141
_cell_formula_units_Z   1
loop_
 _symmetry_equiv_pos_site_id
 _symmetry_equiv_pos_as_xyz
  1  'x, y, z'
loop_
 _atom_site_type_symbol
 _atom_site_label
 _atom_site_symmetry_multiplicity
 _atom_site_fract_x
 _atom_site_fract_y
 _atom_site_fract_z
 _atom_site_occupancy
  Mg  Mg0  1  0.50000000  0.16768000  0.22759000  1
  Ti  Ti1  1  0.02168400  0.66532900  0.43177300  1
  Mn  Mn2  1  0.50000000  0.50000000  0.22759000  1
  V  V3  1  0.50000000  0.83232000  0.00000000  1
  Zn  Zn4  1  0.50000000  0.00000000  0.11379000  1
  Cr  Cr5  1  0.00000000  0.33232000  0.22759000  1
  Fe  Fe6  1  0.49686100  0.67180700  0.34508000  1
  Co  Co7  1  0.49590400  0.99456800  0.33454800  1
  Cu  Cu8  1  0.46537800  0.48588300  0.44776200  1
  Ni  Ni9  1  0.00000000  0.16768000  0.11379000  1
  Sb  Sb10  1  0.00000000  0.00000000  0.00000000  1
  Sb  Sb11  1  0.00000000  0.00000000  0.22759000  1
  Sb  Sb12  1  0.99745800  0.99157000  0.46309100  1
  Sb  Sb13  1  0.50000000  0.50000000  0.00000000  1
  Sb  Sb14  1  0.00000000  0.50000000  0.11379000  1
  Sb  Sb15  1  0.99586700  0.49791400  0.33978100  1
  Sb  Sb16  1  0.00000000  0.33232000  0.00000000  1
  Sb  Sb17  1  0.50000000  0.33232000  0.11379000  1
  Sb  Sb18  1  0.49499800  0.33562500  0.33281100  1
  Sb  Sb19  1  0.97091400  0.32992800  0.46208800  1
  Sb  Sb20  1  0.00000000  0.83232000  0.11379000  1
  Sb  Sb21  1  0.50000000  0.83232000  0.22759000  1
  Sb  Sb22  1  0.99473500  0.83927500  0.34110500  1
  Sb  Sb23  1  0.52067100  0.79855300  0.46142000  1
  Sb  Sb24  1  0.50000000  0.16768000  0.00000000  1
  Sb  Sb25  1  0.99439400  0.15811300  0.34093700  1
  Sb  Sb26  1  0.48552700  0.15970700  0.44319400  1
  Sb  Sb27  1  0.00000000  0.66768000  0.00000000  1
  Sb  Sb28  1  0.50000000  0.66768000  0.11379000  1
  Sb  Sb29  1  0.00000000  0.66768000  0.22759000  1
  Cl  Cl30  1  0.52342200  0.53513800  0.52125500  1
  O  O31  1  0.00000000  0.17164000  0.04494000  1
  O  O32  1  0.50000000  0.17164000  0.15874000  1
  O  O33  1  0.00019600  0.15525700  0.27065200  1
  O  O34  1  0.48909900  0.16345700  0.37763500  1
  O  O35  1  0.50000000  0.17164000  0.06885000  1
  O  O36  1  0.00000000  0.17164000  0.18264000  1
  O  O37  1  0.49776000  0.16733300  0.29582400  1
  O  O38  1  0.98750100  0.15974800  0.41665500  1
  O  O39  1  0.69747000  0.67164000  0.00000000  1
  O  O40  1  0.19747000  0.67164000  0.11379000  1
  O  O41  1  0.69747000  0.67164000  0.22759000  1
  O  O42  1  0.18178200  0.66687100  0.34963100  1
  O  O43  1  0.85396900  0.70445200  0.47473000  1
  O  O44  1  0.30253000  0.67164000  0.00000000  1
  O  O45  1  0.80253000  0.67164000  0.11379000  1
  O  O46  1  0.30253000  0.67164000  0.22759000  1
  O  O47  1  0.80940300  0.66692300  0.34570200  1
  O  O48  1  0.27008400  0.65502000  0.45141100  1
  O  O49  1  0.69747000  0.32836000  0.00000000  1
  O  O50  1  0.19747000  0.32836000  0.11379000  1
  O  O51  1  0.69747000  0.32836000  0.22759000  1
  O  O52  1  0.18686400  0.33329300  0.33879600  1
  O  O53  1  0.66412200  0.32119900  0.44910200  1
  O  O54  1  0.30253000  0.32836000  0.00000000  1
  O  O55  1  0.80253000  0.32836000  0.11379000  1
  O  O56  1  0.30253000  0.32836000  0.22759000  1
  O  O57  1  0.80226600  0.33487600  0.33847300  1
  O  O58  1  0.28215600  0.30059200  0.45814200  1
  O  O59  1  0.00000000  0.82836000  0.04494000  1
  O  O60  1  0.50000000  0.82836000  0.15874000  1
  O  O61  1  0.00021600  0.84468700  0.27066400  1
  O  O62  1  0.52172900  0.80714000  0.39244800  1
  O  O63  1  0.50000000  0.82836000  0.06885000  1
  O  O64  1  0.00000000  0.82836000  0.18264000  1
  O  O65  1  0.49519800  0.82031500  0.29668400  1
  O  O66  1  0.00396900  0.85718000  0.40941300  1
  O  O67  1  0.00000000  0.50000000  0.04332000  1
  O  O68  1  0.50000000  0.50000000  0.15711000  1
  O  O69  1  0.00049200  0.49998000  0.27169600  1
  O  O70  1  0.48468700  0.49074000  0.37959500  1
  O  O71  1  0.50000000  0.50000000  0.07048000  1
  O  O72  1  0.00000000  0.50000000  0.18427000  1
  O  O73  1  0.49605900  0.50878200  0.29279400  1
  O  O74  1  0.98080600  0.47418500  0.41043500  1
  O  O75  1  0.69034000  1.00000000  0.00000000  1
  O  O76  1  0.19034000  0.00000000  0.11379000  1
  O  O77  1  0.69034000  1.00000000  0.22759000  1
  O  O78  1  0.19997200  0.99320200  0.34017100  1
  O  O79  1  0.68593900  0.01435600  0.45984600  1
  O  O80  1  0.30966000  0.00000000  0.00000000  1
  O  O81  1  0.80966000  1.00000000  0.11379000  1
  O  O82  1  0.30966000  0.00000000  0.22759000  1
  O  O83  1  0.78919600  0.99439100  0.34022300  1
  O  O84  1  0.31505600  0.99322700  0.45536600  1
