# generated using pymatgen
data_MgTiMnVZnCrFeCoCuNiSb20ClO54
_symmetry_space_group_name_H-M   'P 1'
_cell_length_a   6.66244800
_cell_length_b   9.53572700
_cell_length_c   28.71394800
_cell_angle_alpha   89.98527500
_cell_angle_beta   89.89285900
_cell_angle_gamma   89.93081900
_symmetry_Int_Tables_number   1
_chemical_formula_structural   MgTiMnVZnCrFeCoCuNiSb20ClO54
_chemical_formula_sum
'Mg1 Ti1 Mn1 V1 Zn1 Cr1 Fe1 Co1 Cu1 Ni1 Sb20 Cl1 O54'
_cell_volume   1824.22944347
_cell_formula_units_Z   1
loop_
 _symmetry_equiv_pos_site_id
 _symmetry_equiv_pos_as_xyz
  1  'x, y, z'
loop_
 _atom_site_type_symbol
 _atom_site_label
 _atom_site_symmetry_multiplicity
 _atom_site_fract_x
 _atom_site_fract_y
 _atom_site_fract_z
 _atom_site_occupancy
  Mg  Mg0  1  0.50000000  0.66768000  0.88621000  1
  Ti  Ti1  1  0.50084400  0.99053900  0.66392700  1
  Mn  Mn2  1  0.00139500  0.50577500  0.66094300  1
  V  V3  1  1.00000000  0.33232000  0.77241000  1
  Zn  Zn4  1  0.00000000  0.00000000  0.77241000  1
  Cr  Cr5  1  0.50000000  0.16768000  0.77241000  1
  Fe  Fe6  1  0.00000000  0.66768000  0.00000000  1
  Co  Co7  1  1.00000000  0.16768000  0.88621000  1
  Cu  Cu8  1  0.48708200  0.47999700  0.54441200  1
  Ni  Ni9  1  0.00131100  0.01683700  0.55192800  1
  Sb  Sb10  1  0.00000000  0.00000000  0.00000000  1
  Sb  Sb11  1  0.50000000  1.00000000  0.88621000  1
  Sb  Sb12  1  0.50000000  0.50000000  1.00000000  1
  Sb  Sb13  1  0.00000000  0.50000000  0.88621000  1
  Sb  Sb14  1  0.50000000  0.50000000  0.77241000  1
  Sb  Sb15  1  0.00000000  0.66768000  0.77241000  1
  Sb  Sb16  1  0.50326000  0.66878500  0.63354600  1
  Sb  Sb17  1  0.00222700  0.67047700  0.55075000  1
  Sb  Sb18  1  0.50000000  0.16768000  1.00000000  1
  Sb  Sb19  1  0.99910900  0.16995100  0.66260100  1
  Sb  Sb20  1  0.49873700  0.15238200  0.55098800  1
  Sb  Sb21  1  0.50000000  0.83232000  0.00000000  1
  Sb  Sb22  1  0.00000000  0.83232000  0.88621000  1
  Sb  Sb23  1  0.50000000  0.83232000  0.77241000  1
  Sb  Sb24  1  0.00301400  0.83386500  0.66018700  1
  Sb  Sb25  1  0.50417200  0.81783200  0.53267500  1
  Sb  Sb26  1  1.00000000  0.33232000  1.00000000  1
  Sb  Sb27  1  0.50000000  0.33232000  0.88621000  1
  Sb  Sb28  1  0.50020700  0.32840700  0.66352700  1
  Sb  Sb29  1  0.99531600  0.33285800  0.54365100  1
  Cl  Cl30  1  0.49051600  0.55718900  0.47225800  1
  O  O31  1  0.00000000  0.82836000  0.95506000  1
  O  O32  1  0.50000000  0.82836000  0.84126000  1
  O  O33  1  0.00019600  0.84474300  0.72934800  1
  O  O34  1  0.49759200  0.87810200  0.61075100  1
  O  O35  1  0.50000000  0.82836000  0.93115000  1
  O  O36  1  0.00000000  0.82836000  0.81736000  1
  O  O37  1  0.50020500  0.83386800  0.70181800  1
  O  O38  1  0.01101400  0.84349900  0.59101000  1
  O  O39  1  0.69747000  0.32836000  1.00000000  1
  O  O40  1  0.19747000  0.32836000  0.88621000  1
  O  O41  1  0.69747000  0.32836000  0.77241000  1
  O  O42  1  0.19551900  0.33245500  0.66169600  1
  O  O43  1  0.68395900  0.30845100  0.53878700  1
  O  O44  1  0.30253000  0.32836000  1.00000000  1
  O  O45  1  0.80253000  0.32836000  0.88621000  1
  O  O46  1  0.30253000  0.32836000  0.77241000  1
  O  O47  1  0.80486500  0.33333333  0.66307100  1
  O  O48  1  0.30087400  0.30071500  0.53969100  1
  O  O49  1  0.69747000  0.67164000  0.00000000  1
  O  O50  1  0.19747000  0.67164000  0.88621000  1
  O  O51  1  0.69747000  0.67164000  0.77241000  1
  O  O52  1  0.19471600  0.66746600  0.65976800  1
  O  O53  1  0.69413800  0.67888900  0.56815400  1
  O  O54  1  0.30253000  0.67164000  0.00000000  1
  O  O55  1  0.80253000  0.67164000  0.88621000  1
  O  O56  1  0.30253000  0.67164000  0.77241000  1
  O  O57  1  0.81066000  0.66862300  0.65998600  1
  O  O58  1  0.31997400  0.66888000  0.56697500  1
  O  O59  1  1.00000000  0.17164000  0.95506000  1
  O  O60  1  0.50000000  0.17164000  0.84126000  1
  O  O61  1  0.00021600  0.15531300  0.72933600  1
  O  O62  1  0.50199800  0.16113700  0.61946800  1
  O  O63  1  0.50000000  0.17164000  0.93115000  1
  O  O64  1  1.00000000  0.17164000  0.81736000  1
  O  O65  1  0.50077200  0.16180900  0.70486600  1
  O  O66  1  0.99276600  0.17922200  0.59291000  1
  O  O67  1  0.00000000  0.50000000  0.95668000  1
  O  O68  1  0.50000000  0.50000000  0.84289000  1
  O  O69  1  0.00049200  0.50002000  0.72830400  1
  O  O70  1  0.50220200  0.46388700  0.61180000  1
  O  O71  1  0.50000000  0.50000000  0.92952000  1
  O  O72  1  0.00000000  0.50000000  0.81573000  1
  O  O73  1  0.50018700  0.50221800  0.70285100  1
  O  O74  1  0.00070700  0.49624100  0.59348900  1
  O  O75  1  0.69034000  0.00000000  0.00000000  1
  O  O76  1  0.19034000  1.00000000  0.88621000  1
  O  O77  1  0.69034000  0.00000000  0.77241000  1
  O  O78  1  0.19468500  0.00192200  0.65987600  1
  O  O79  1  0.71113000  0.00838400  0.53899600  1
  O  O80  1  0.30966000  1.00000000  0.00000000  1
  O  O81  1  0.80966000  0.00000000  0.88621000  1
  O  O82  1  0.30966000  1.00000000  0.77241000  1
  O  O83  1  0.80637000  0.99994900  0.65957100  1
  O  O84  1  0.29104900  0.00610300  0.53864700  1
