# generated using pymatgen
data_MgTiMnVZnCrFeCoCuNiSb20ClO54
_symmetry_space_group_name_H-M   'P 1'
_cell_length_a   6.75600400
_cell_length_b   9.53429300
_cell_length_c   29.71486800
_cell_angle_alpha   89.86091300
_cell_angle_beta   89.96651700
_cell_angle_gamma   89.91062400
_symmetry_Int_Tables_number   1
_chemical_formula_structural   MgTiMnVZnCrFeCoCuNiSb20ClO54
_chemical_formula_sum
'Mg1 Ti1 Mn1 V1 Zn1 Cr1 Fe1 Co1 Cu1 Ni1 Sb20 Cl1 O54'
_cell_volume   1914.03694512
_cell_formula_units_Z   1
loop_
 _symmetry_equiv_pos_site_id
 _symmetry_equiv_pos_as_xyz
  1  'x, y, z'
loop_
 _atom_site_type_symbol
 _atom_site_label
 _atom_site_symmetry_multiplicity
 _atom_site_fract_x
 _atom_site_fract_y
 _atom_site_fract_z
 _atom_site_occupancy
  Mg  Mg0  1  0.50043500  0.65585000  0.66207500  1
  Ti  Ti1  1  1.00000000  0.50000000  0.88621000  1
  Mn  Mn2  1  0.99568200  0.33998400  0.57375800  1
  V  V3  1  0.50000000  0.83232000  1.00000000  1
  Zn  Zn4  1  1.00000000  0.66768000  0.77241000  1
  Cr  Cr5  1  0.99998900  0.50325000  0.66507300  1
  Fe  Fe6  1  1.00000000  0.83232000  0.88621000  1
  Co  Co7  1  0.50601300  0.82751000  0.55964900  1
  Cu  Cu8  1  0.48218000  0.50742000  0.55755600  1
  Ni  Ni9  1  0.49739700  0.34254500  0.65990200  1
  Sb  Sb10  1  0.00000000  0.00000000  0.00000000  1
  Sb  Sb11  1  0.50000000  0.00000000  0.88621000  1
  Sb  Sb12  1  0.00000000  0.00000000  0.77241000  1
  Sb  Sb13  1  0.49982200  0.00227900  0.66059400  1
  Sb  Sb14  1  0.00232100  0.99342300  0.54642400  1
  Sb  Sb15  1  0.50000000  0.50000000  1.00000000  1
  Sb  Sb16  1  0.50000000  0.50000000  0.77241000  1
  Sb  Sb17  1  1.00000000  0.66768000  1.00000000  1
  Sb  Sb18  1  0.50000000  0.66768000  0.88621000  1
  Sb  Sb19  1  0.99177400  0.65990500  0.54904900  1
  Sb  Sb20  1  0.50000000  0.16768000  1.00000000  1
  Sb  Sb21  1  0.00000000  0.16768000  0.88621000  1
  Sb  Sb22  1  0.50000000  0.16768000  0.77241000  1
  Sb  Sb23  1  0.99891600  0.17344300  0.65955800  1
  Sb  Sb24  1  0.49898700  0.16258200  0.55073100  1
  Sb  Sb25  1  0.50000000  0.83232000  0.77241000  1
  Sb  Sb26  1  0.00011500  0.81840500  0.66242300  1
  Sb  Sb27  1  0.00000000  0.33232000  1.00000000  1
  Sb  Sb28  1  0.50000000  0.33232000  0.88621000  1
  Sb  Sb29  1  0.00000000  0.33232000  0.77241000  1
  Cl  Cl30  1  0.46983500  0.49393700  0.48598200  1
  O  O31  1  1.00000000  0.82836000  0.95506000  1
  O  O32  1  0.50000000  0.82836000  0.84126000  1
  O  O33  1  0.00019600  0.84474300  0.72934800  1
  O  O34  1  0.50830900  0.83819700  0.62312500  1
  O  O35  1  0.50000000  0.82836000  0.93115000  1
  O  O36  1  1.00000000  0.82836000  0.81736000  1
  O  O37  1  0.49736900  0.84494500  0.70663800  1
  O  O38  1  0.00518500  0.83524000  0.59331500  1
  O  O39  1  0.69747000  0.32836000  1.00000000  1
  O  O40  1  0.19747000  0.32836000  0.88621000  1
  O  O41  1  0.69747000  0.32836000  0.77241000  1
  O  O42  1  0.18753100  0.33442400  0.65971700  1
  O  O43  1  0.77746500  0.33221300  0.54692900  1
  O  O44  1  0.30253000  0.32836000  1.00000000  1
  O  O45  1  0.80253000  0.32836000  0.88621000  1
  O  O46  1  0.30253000  0.32836000  0.77241000  1
  O  O47  1  0.81209000  0.33515200  0.66085000  1
  O  O48  1  0.21961600  0.32464200  0.54955400  1
  O  O49  1  0.69747000  0.67164000  1.00000000  1
  O  O50  1  0.19747000  0.67164000  0.88621000  1
  O  O51  1  0.69747000  0.67164000  0.77241000  1
  O  O52  1  0.18937100  0.66134400  0.66396700  1
  O  O53  1  0.69956100  0.69835700  0.54945600  1
  O  O54  1  0.30253000  0.67164000  1.00000000  1
  O  O55  1  0.80253000  0.67164000  0.88621000  1
  O  O56  1  0.30253000  0.67164000  0.77241000  1
  O  O57  1  0.81172600  0.66142800  0.66435700  1
  O  O58  1  0.32925900  0.69457300  0.55665000  1
  O  O59  1  0.00000000  0.17164000  0.95506000  1
  O  O60  1  0.50000000  0.17164000  0.84126000  1
  O  O61  1  0.00021600  0.15531300  0.72933600  1
  O  O62  1  0.50134000  0.16984900  0.61921700  1
  O  O63  1  0.50000000  0.17164000  0.93115000  1
  O  O64  1  0.00000000  0.17164000  0.81736000  1
  O  O65  1  0.49921500  0.16521800  0.70497500  1
  O  O66  1  0.98829500  0.14654800  0.59289400  1
  O  O67  1  1.00000000  0.50000000  0.95668000  1
  O  O68  1  0.50000000  0.50000000  0.84289000  1
  O  O69  1  0.00049200  0.50002000  0.72830400  1
  O  O70  1  0.50466300  0.49206600  0.61843800  1
  O  O71  1  0.50000000  0.50000000  0.92952000  1
  O  O72  1  1.00000000  0.50000000  0.81573000  1
  O  O73  1  0.49777500  0.49145000  0.70745200  1
  O  O74  1  0.99810600  0.51741200  0.59826400  1
  O  O75  1  0.69034000  1.00000000  0.00000000  1
  O  O76  1  0.19034000  0.00000000  0.88621000  1
  O  O77  1  0.69034000  1.00000000  0.77241000  1
  O  O78  1  0.18863100  0.00121400  0.66229600  1
  O  O79  1  0.68307900  0.98691400  0.55365400  1
  O  O80  1  0.30966000  0.00000000  1.00000000  1
  O  O81  1  0.80966000  1.00000000  0.88621000  1
  O  O82  1  0.30966000  0.00000000  0.77241000  1
  O  O83  1  0.81113100  0.00117200  0.66341700  1
  O  O84  1  0.31412700  0.98925100  0.55463500  1
