# generated using pymatgen
data_MgTiMnVZnCrFeCoCuNiSb20ClO54
_symmetry_space_group_name_H-M   'P 1'
_cell_length_a   6.72459800
_cell_length_b   9.45400200
_cell_length_c   29.12243800
_cell_angle_alpha   89.81603400
_cell_angle_beta   89.98430000
_cell_angle_gamma   89.99229000
_symmetry_Int_Tables_number   1
_chemical_formula_structural   MgTiMnVZnCrFeCoCuNiSb20ClO54
_chemical_formula_sum
'Mg1 Ti1 Mn1 V1 Zn1 Cr1 Fe1 Co1 Cu1 Ni1 Sb20 Cl1 O54'
_cell_volume   1851.43081356
_cell_formula_units_Z   1
loop_
 _symmetry_equiv_pos_site_id
 _symmetry_equiv_pos_as_xyz
  1  'x, y, z'
loop_
 _atom_site_type_symbol
 _atom_site_label
 _atom_site_symmetry_multiplicity
 _atom_site_fract_x
 _atom_site_fract_y
 _atom_site_fract_z
 _atom_site_occupancy
  Mg  Mg0  1  0.50000000  0.00000000  0.11379000  1
  Ti  Ti1  1  0.00000000  0.16768000  0.11379000  1
  Mn  Mn2  1  0.50031000  0.33504800  0.33733600  1
  V  V3  1  0.99994600  0.17510900  0.32940300  1
  Zn  Zn4  1  0.00000000  0.33232000  0.22759000  1
  Cr  Cr5  1  0.50000000  0.83232000  1.00000000  1
  Fe  Fe6  1  0.00000000  0.66768000  0.22759000  1
  Co  Co7  1  0.99943000  0.01798500  0.44141100  1
  Cu  Cu8  1  0.49992900  0.48439800  0.45118200  1
  Ni  Ni9  1  0.00000000  0.00000000  0.22759000  1
  Sb  Sb10  1  0.00000000  0.00000000  0.00000000  1
  Sb  Sb11  1  0.50004100  0.00424300  0.33880500  1
  Sb  Sb12  1  0.50000000  0.50000000  1.00000000  1
  Sb  Sb13  1  0.00000000  0.50000000  0.11379000  1
  Sb  Sb14  1  0.50000000  0.50000000  0.22759000  1
  Sb  Sb15  1  0.99894700  0.49131600  0.33710500  1
  Sb  Sb16  1  0.00000000  0.33232000  0.00000000  1
  Sb  Sb17  1  0.50000000  0.33232000  0.11379000  1
  Sb  Sb18  1  0.99935800  0.30637500  0.45221800  1
  Sb  Sb19  1  0.00000000  0.83232000  0.11379000  1
  Sb  Sb20  1  0.50000000  0.83232000  0.22759000  1
  Sb  Sb21  1  0.99960600  0.84192000  0.33685800  1
  Sb  Sb22  1  0.49985600  0.79771500  0.46443100  1
  Sb  Sb23  1  0.50000000  0.16768000  1.00000000  1
  Sb  Sb24  1  0.50000000  0.16768000  0.22759000  1
  Sb  Sb25  1  0.49953600  0.15941000  0.45024100  1
  Sb  Sb26  1  1.00000000  0.66768000  0.00000000  1
  Sb  Sb27  1  0.50000000  0.66768000  0.11379000  1
  Sb  Sb28  1  0.49868400  0.65884100  0.35458200  1
  Sb  Sb29  1  0.00106000  0.66830200  0.44886100  1
  Cl  Cl30  1  0.49357800  0.59877600  0.52785000  1
  O  O31  1  0.00000000  0.17164000  0.04494000  1
  O  O32  1  0.50000000  0.17164000  0.15874000  1
  O  O33  1  0.00019600  0.15525700  0.27065200  1
  O  O34  1  0.50123800  0.17174500  0.38077000  1
  O  O35  1  0.50000000  0.17164000  0.06885000  1
  O  O36  1  0.00000000  0.17164000  0.18264000  1
  O  O37  1  0.49956000  0.16988900  0.29627300  1
  O  O38  1  0.99554700  0.17685800  0.39902800  1
  O  O39  1  0.69747000  0.67164000  1.00000000  1
  O  O40  1  0.19747000  0.67164000  0.11379000  1
  O  O41  1  0.69747000  0.67164000  0.22759000  1
  O  O42  1  0.18796000  0.66813100  0.34026500  1
  O  O43  1  0.69117600  0.65808600  0.43399200  1
  O  O44  1  0.30253000  0.67164000  1.00000000  1
  O  O45  1  0.80253000  0.67164000  0.11379000  1
  O  O46  1  0.30253000  0.67164000  0.22759000  1
  O  O47  1  0.81115900  0.66858500  0.34059700  1
  O  O48  1  0.31174800  0.65716500  0.43293100  1
  O  O49  1  0.69747000  0.32836000  1.00000000  1
  O  O50  1  0.19747000  0.32836000  0.11379000  1
  O  O51  1  0.69747000  0.32836000  0.22759000  1
  O  O52  1  0.19671800  0.32810800  0.33625900  1
  O  O53  1  0.68706100  0.32387400  0.45799900  1
  O  O54  1  0.30253000  0.32836000  1.00000000  1
  O  O55  1  0.80253000  0.32836000  0.11379000  1
  O  O56  1  0.30253000  0.32836000  0.22759000  1
  O  O57  1  0.80175300  0.32832000  0.33552200  1
  O  O58  1  0.31066500  0.32375300  0.45683500  1
  O  O59  1  0.00000000  0.82836000  0.04494000  1
  O  O60  1  0.50000000  0.82836000  0.15874000  1
  O  O61  1  0.00021600  0.84468700  0.27066400  1
  O  O62  1  0.50127600  0.85691200  0.38698300  1
  O  O63  1  0.50000000  0.82836000  0.06885000  1
  O  O64  1  0.00000000  0.82836000  0.18264000  1
  O  O65  1  0.49974700  0.83147000  0.29833500  1
  O  O66  1  0.00091600  0.83965900  0.40629300  1
  O  O67  1  1.00000000  0.50000000  0.04332000  1
  O  O68  1  0.50000000  0.50000000  0.15711000  1
  O  O69  1  0.00049200  0.49998000  0.27169600  1
  O  O70  1  0.50225300  0.46007000  0.38158500  1
  O  O71  1  0.50000000  0.50000000  0.07048000  1
  O  O72  1  0.00000000  0.50000000  0.18427000  1
  O  O73  1  0.49873400  0.49391900  0.29803500  1
  O  O74  1  0.99771200  0.48920800  0.40791900  1
  O  O75  1  0.69034000  1.00000000  1.00000000  1
  O  O76  1  0.19034000  0.00000000  0.11379000  1
  O  O77  1  0.69034000  1.00000000  0.22759000  1
  O  O78  1  0.19493300  0.00806300  0.33880400  1
  O  O79  1  0.73108600  0.01725000  0.45838600  1
  O  O80  1  0.30966000  0.00000000  1.00000000  1
  O  O81  1  0.80966000  1.00000000  0.11379000  1
  O  O82  1  0.30966000  0.00000000  0.22759000  1
  O  O83  1  0.80515500  0.00802200  0.33871800  1
  O  O84  1  0.26780900  0.01745400  0.45803600  1
