# generated using pymatgen
data_MgTiMnVZnCrFeCoCuNiSb20ClO54
_symmetry_space_group_name_H-M   'P 1'
_cell_length_a   6.58446600
_cell_length_b   9.63471500
_cell_length_c   28.32677400
_cell_angle_alpha   89.95811700
_cell_angle_beta   89.85396500
_cell_angle_gamma   89.85854100
_symmetry_Int_Tables_number   1
_chemical_formula_structural   MgTiMnVZnCrFeCoCuNiSb20ClO54
_chemical_formula_sum
'Mg1 Ti1 Mn1 V1 Zn1 Cr1 Fe1 Co1 Cu1 Ni1 Sb20 Cl1 O54'
_cell_volume   1797.02327142
_cell_formula_units_Z   1
loop_
 _symmetry_equiv_pos_site_id
 _symmetry_equiv_pos_as_xyz
  1  'x, y, z'
loop_
 _atom_site_type_symbol
 _atom_site_label
 _atom_site_symmetry_multiplicity
 _atom_site_fract_x
 _atom_site_fract_y
 _atom_site_fract_z
 _atom_site_occupancy
  Mg  Mg0  1  0.00000000  0.33232000  0.00000000  1
  Ti  Ti1  1  1.00000000  0.00000000  0.77241000  1
  Mn  Mn2  1  1.00000000  0.83232000  0.88621000  1
  V  V3  1  1.00000000  0.66768000  0.00000000  1
  Zn  Zn4  1  0.50000000  0.83232000  0.77241000  1
  Cr  Cr5  1  1.00000000  0.16768000  0.88621000  1
  Fe  Fe6  1  0.50000000  0.16768000  0.77241000  1
  Co  Co7  1  1.00000000  0.33232000  0.77241000  1
  Cu  Cu8  1  0.49729900  0.50068700  0.54557600  1
  Ni  Ni9  1  1.00000000  0.66768000  0.77241000  1
  Sb  Sb10  1  0.00000000  0.00000000  0.00000000  1
  Sb  Sb11  1  0.50000000  0.00000000  0.88621000  1
  Sb  Sb12  1  0.50081100  0.00158700  0.65455700  1
  Sb  Sb13  1  0.00382000  0.99805200  0.54128300  1
  Sb  Sb14  1  0.50000000  0.50000000  0.00000000  1
  Sb  Sb15  1  1.00000000  0.50000000  0.88621000  1
  Sb  Sb16  1  0.50000000  0.50000000  0.77241000  1
  Sb  Sb17  1  0.99869600  0.50106400  0.65857400  1
  Sb  Sb18  1  0.50000000  0.66768000  0.88621000  1
  Sb  Sb19  1  0.50025900  0.67529100  0.65366600  1
  Sb  Sb20  1  0.00864100  0.67349000  0.53224000  1
  Sb  Sb21  1  0.50000000  0.16768000  0.00000000  1
  Sb  Sb22  1  0.99967300  0.16583800  0.66046300  1
  Sb  Sb23  1  0.49701000  0.17697700  0.52732700  1
  Sb  Sb24  1  0.50000000  0.83232000  0.00000000  1
  Sb  Sb25  1  0.00135200  0.83684700  0.66076100  1
  Sb  Sb26  1  0.50590700  0.82529000  0.53022500  1
  Sb  Sb27  1  0.50000000  0.33232000  0.88621000  1
  Sb  Sb28  1  0.50001700  0.32688800  0.65380900  1
  Sb  Sb29  1  0.99822800  0.31998600  0.53347900  1
  Cl  Cl30  1  0.47967600  0.50561800  0.46771700  1
  O  O31  1  1.00000000  0.82836000  0.95506000  1
  O  O32  1  0.50000000  0.82836000  0.84126000  1
  O  O33  1  0.00019600  0.84474300  0.72934800  1
  O  O34  1  0.50559500  0.83973000  0.60946300  1
  O  O35  1  0.50000000  0.82836000  0.93115000  1
  O  O36  1  1.00000000  0.82836000  0.81736000  1
  O  O37  1  0.49674900  0.84030200  0.69828800  1
  O  O38  1  0.00814700  0.83810700  0.58995800  1
  O  O39  1  0.69747000  0.32836000  0.00000000  1
  O  O40  1  0.19747000  0.32836000  0.88621000  1
  O  O41  1  0.69747000  0.32836000  0.77241000  1
  O  O42  1  0.19969200  0.31867400  0.65957300  1
  O  O43  1  0.68995500  0.33119400  0.55190100  1
  O  O44  1  0.30253000  0.32836000  0.00000000  1
  O  O45  1  0.80253000  0.32836000  0.88621000  1
  O  O46  1  0.30253000  0.32836000  0.77241000  1
  O  O47  1  0.79987400  0.31890100  0.66049700  1
  O  O48  1  0.29581000  0.31935200  0.55403900  1
  O  O49  1  0.69747000  0.67164000  0.00000000  1
  O  O50  1  0.19747000  0.67164000  0.88621000  1
  O  O51  1  0.69747000  0.67164000  0.77241000  1
  O  O52  1  0.20034000  0.68203400  0.65960000  1
  O  O53  1  0.71060200  0.67891600  0.55286700  1
  O  O54  1  0.30253000  0.67164000  0.00000000  1
  O  O55  1  0.80253000  0.67164000  0.88621000  1
  O  O56  1  0.30253000  0.67164000  0.77241000  1
  O  O57  1  0.80020200  0.68361100  0.66021800  1
  O  O58  1  0.31015700  0.67079100  0.55538900  1
  O  O59  1  1.00000000  0.17164000  0.95506000  1
  O  O60  1  0.50000000  0.17164000  0.84126000  1
  O  O61  1  0.00021600  0.15531300  0.72933600  1
  O  O62  1  0.50677800  0.16326300  0.61055400  1
  O  O63  1  0.50000000  0.17164000  0.93115000  1
  O  O64  1  1.00000000  0.17164000  0.81736000  1
  O  O65  1  0.49924900  0.16334100  0.69987600  1
  O  O66  1  0.99060400  0.16317800  0.58973700  1
  O  O67  1  1.00000000  0.50000000  0.95668000  1
  O  O68  1  0.50000000  0.50000000  0.84289000  1
  O  O69  1  0.00049200  0.50002000  0.72830400  1
  O  O70  1  0.50304700  0.50048600  0.61388700  1
  O  O71  1  0.50000000  0.50000000  0.92952000  1
  O  O72  1  1.00000000  0.50000000  0.81573000  1
  O  O73  1  0.49970400  0.49897600  0.69906600  1
  O  O74  1  0.00140700  0.49726900  0.56873500  1
  O  O75  1  0.69034000  1.00000000  0.00000000  1
  O  O76  1  0.19034000  0.00000000  0.88621000  1
  O  O77  1  0.69034000  1.00000000  0.77241000  1
  O  O78  1  0.19322500  0.00271400  0.65689800  1
  O  O79  1  0.69432100  0.00456900  0.55098500  1
  O  O80  1  0.30966000  0.00000000  0.00000000  1
  O  O81  1  0.80966000  1.00000000  0.88621000  1
  O  O82  1  0.30966000  0.00000000  0.77241000  1
  O  O83  1  0.80846900  0.00139400  0.65760300  1
  O  O84  1  0.31116000  0.00603400  0.55312700  1
