# generated using pymatgen
data_MgTiMnVZnCrFeCoCuNiSb20ClO54
_symmetry_space_group_name_H-M   'P 1'
_cell_length_a   6.65138400
_cell_length_b   9.75258800
_cell_length_c   29.04069300
_cell_angle_alpha   89.50871700
_cell_angle_beta   89.95270600
_cell_angle_gamma   89.99976700
_symmetry_Int_Tables_number   1
_chemical_formula_structural   MgTiMnVZnCrFeCoCuNiSb20ClO54
_chemical_formula_sum
'Mg1 Ti1 Mn1 V1 Zn1 Cr1 Fe1 Co1 Cu1 Ni1 Sb20 Cl1 O54'
_cell_volume   1883.74781516
_cell_formula_units_Z   1
loop_
 _symmetry_equiv_pos_site_id
 _symmetry_equiv_pos_as_xyz
  1  'x, y, z'
loop_
 _atom_site_type_symbol
 _atom_site_label
 _atom_site_symmetry_multiplicity
 _atom_site_fract_x
 _atom_site_fract_y
 _atom_site_fract_z
 _atom_site_occupancy
  Mg  Mg0  1  0.00000000  0.00000000  0.00000000  1
  Ti  Ti1  1  0.99999000  0.81570600  0.65340000  1
  Mn  Mn2  1  0.50000000  0.16768000  0.77241000  1
  V  V3  1  0.49991600  0.66581800  0.65994700  1
  Zn  Zn4  1  0.00102500  0.51930900  0.66414100  1
  Cr  Cr5  1  0.00103100  0.33676100  0.58903800  1
  Fe  Fe6  1  1.00000000  0.33232000  0.77241000  1
  Co  Co7  1  1.00000000  0.50000000  0.88621000  1
  Cu  Cu8  1  1.00000000  0.66768000  1.00000000  1
  Ni  Ni9  1  0.50052800  0.51128900  0.55100700  1
  Sb  Sb10  1  0.50000000  0.00000000  0.88621000  1
  Sb  Sb11  1  1.00000000  0.00000000  0.77241000  1
  Sb  Sb12  1  0.50034100  0.99904000  0.65960900  1
  Sb  Sb13  1  0.00155800  0.00592700  0.53804900  1
  Sb  Sb14  1  0.50000000  0.50000000  1.00000000  1
  Sb  Sb15  1  0.50000000  0.50000000  0.77241000  1
  Sb  Sb16  1  0.00000000  0.33232000  1.00000000  1
  Sb  Sb17  1  0.50000000  0.33232000  0.88621000  1
  Sb  Sb18  1  0.50039800  0.32448600  0.64822400  1
  Sb  Sb19  1  0.50000000  0.83232000  1.00000000  1
  Sb  Sb20  1  1.00000000  0.83232000  0.88621000  1
  Sb  Sb21  1  0.50000000  0.83232000  0.77241000  1
  Sb  Sb22  1  0.50102600  0.82476300  0.54917900  1
  Sb  Sb23  1  0.50000000  0.16768000  1.00000000  1
  Sb  Sb24  1  1.00000000  0.16768000  0.88621000  1
  Sb  Sb25  1  0.00033000  0.14609500  0.66137200  1
  Sb  Sb26  1  0.50091700  0.22635300  0.53405100  1
  Sb  Sb27  1  0.50000000  0.66768000  0.88621000  1
  Sb  Sb28  1  1.00000000  0.66768000  0.77241000  1
  Sb  Sb29  1  0.00129200  0.65085700  0.54270900  1
  Cl  Cl30  1  0.50068500  0.43690900  0.47510600  1
  O  O31  1  1.00000000  0.17164000  0.95506000  1
  O  O32  1  0.50000000  0.17164000  0.84126000  1
  O  O33  1  0.99980400  0.15525700  0.72934800  1
  O  O34  1  0.50081900  0.14256900  0.60987700  1
  O  O35  1  0.50000000  0.17164000  0.93115000  1
  O  O36  1  1.00000000  0.17164000  0.81736000  1
  O  O37  1  0.50003000  0.16170800  0.70013600  1
  O  O38  1  0.00194400  0.13579600  0.59152500  1
  O  O39  1  0.30253000  0.67164000  1.00000000  1
  O  O40  1  0.80253000  0.67164000  0.88621000  1
  O  O41  1  0.30253000  0.67164000  0.77241000  1
  O  O42  1  0.78944900  0.69784100  0.66066300  1
  O  O43  1  0.31467000  0.66943600  0.54427300  1
  O  O44  1  0.69747000  0.67164000  1.00000000  1
  O  O45  1  0.19747000  0.67164000  0.88621000  1
  O  O46  1  0.69747000  0.67164000  0.77241000  1
  O  O47  1  0.21103200  0.69760400  0.66079700  1
  O  O48  1  0.68714200  0.66921700  0.54437100  1
  O  O49  1  0.30253000  0.32836000  1.00000000  1
  O  O50  1  0.80253000  0.32836000  0.88621000  1
  O  O51  1  0.30253000  0.32836000  0.77241000  1
  O  O52  1  0.82110900  0.30680900  0.64880200  1
  O  O53  1  0.28311800  0.35067200  0.56019800  1
  O  O54  1  0.69747000  0.32836000  1.00000000  1
  O  O55  1  0.19747000  0.32836000  0.88621000  1
  O  O56  1  0.69747000  0.32836000  0.77241000  1
  O  O57  1  0.17975800  0.30689200  0.64879100  1
  O  O58  1  0.71775800  0.35067500  0.56031300  1
  O  O59  1  1.00000000  0.82836000  0.95506000  1
  O  O60  1  0.50000000  0.82836000  0.84126000  1
  O  O61  1  0.99978400  0.84468700  0.72933600  1
  O  O62  1  0.50017900  0.84047100  0.61697400  1
  O  O63  1  0.50000000  0.82836000  0.93115000  1
  O  O64  1  1.00000000  0.82836000  0.81736000  1
  O  O65  1  0.50129600  0.83722800  0.70335400  1
  O  O66  1  0.00111700  0.83234300  0.58454900  1
  O  O67  1  1.00000000  0.50000000  0.95668000  1
  O  O68  1  0.50000000  0.50000000  0.84289000  1
  O  O69  1  0.99950800  0.49998000  0.72830400  1
  O  O70  1  0.50024700  0.55513000  0.61574800  1
  O  O71  1  0.50000000  0.50000000  0.92952000  1
  O  O72  1  1.00000000  0.50000000  0.81573000  1
  O  O73  1  0.50059700  0.53209600  0.70092900  1
  O  O74  1  0.00164600  0.52973700  0.59762900  1
  O  O75  1  0.30966000  0.00000000  0.00000000  1
  O  O76  1  0.80966000  0.00000000  0.88621000  1
  O  O77  1  0.30966000  0.00000000  0.77241000  1
  O  O78  1  0.80747000  0.98741100  0.66023400  1
  O  O79  1  0.29918700  0.95591900  0.52912100  1
  O  O80  1  0.69034000  0.00000000  0.00000000  1
  O  O81  1  0.19034000  0.00000000  0.88621000  1
  O  O82  1  0.69034000  0.00000000  0.77241000  1
  O  O83  1  0.19344800  0.98741400  0.66046600  1
  O  O84  1  0.70230100  0.95722300  0.52978300  1
