# generated using pymatgen
data_MgTiMnVZnCrFeCoCuNiSb20ClO54
_symmetry_space_group_name_H-M   'P 1'
_cell_length_a   6.75022900
_cell_length_b   9.39142100
_cell_length_c   28.77647500
_cell_angle_alpha   90.06257900
_cell_angle_beta   89.98954600
_cell_angle_gamma   89.99930800
_symmetry_Int_Tables_number   1
_chemical_formula_structural   MgTiMnVZnCrFeCoCuNiSb20ClO54
_chemical_formula_sum
'Mg1 Ti1 Mn1 V1 Zn1 Cr1 Fe1 Co1 Cu1 Ni1 Sb20 Cl1 O54'
_cell_volume   1824.26171254
_cell_formula_units_Z   1
loop_
 _symmetry_equiv_pos_site_id
 _symmetry_equiv_pos_as_xyz
  1  'x, y, z'
loop_
 _atom_site_type_symbol
 _atom_site_label
 _atom_site_symmetry_multiplicity
 _atom_site_fract_x
 _atom_site_fract_y
 _atom_site_fract_z
 _atom_site_occupancy
  Mg  Mg0  1  0.00000000  1.00000000  0.77241000  1
  Ti  Ti1  1  0.50000000  0.66768000  0.88621000  1
  Mn  Mn2  1  0.50000000  0.83232000  0.77241000  1
  V  V3  1  0.50117800  0.50164700  0.54481500  1
  Zn  Zn4  1  0.00000000  0.16768000  0.88621000  1
  Cr  Cr5  1  0.50128800  0.81716300  0.55601300  1
  Fe  Fe6  1  0.50000000  0.16768000  0.77241000  1
  Co  Co7  1  0.00000000  0.66768000  0.77241000  1
  Cu  Cu8  1  0.50009500  0.99915000  0.66411800  1
  Ni  Ni9  1  0.50000000  0.33232000  0.88621000  1
  Sb  Sb10  1  0.00000000  0.00000000  0.00000000  1
  Sb  Sb11  1  0.50000000  1.00000000  0.88621000  1
  Sb  Sb12  1  0.00155300  0.99312500  0.54005200  1
  Sb  Sb13  1  0.50000000  0.50000000  1.00000000  1
  Sb  Sb14  1  0.00000000  0.50000000  0.88621000  1
  Sb  Sb15  1  0.50000000  0.50000000  0.77241000  1
  Sb  Sb16  1  0.00026500  0.50038000  0.65856400  1
  Sb  Sb17  1  0.00000000  0.33232000  0.00000000  1
  Sb  Sb18  1  0.00000000  0.33232000  0.77241000  1
  Sb  Sb19  1  0.50020400  0.32002400  0.65701400  1
  Sb  Sb20  1  0.99879700  0.34272800  0.53589900  1
  Sb  Sb21  1  0.50000000  0.83232000  1.00000000  1
  Sb  Sb22  1  1.00000000  0.83232000  0.88621000  1
  Sb  Sb23  1  0.00017400  0.84119200  0.66322200  1
  Sb  Sb24  1  0.50000000  0.16768000  1.00000000  1
  Sb  Sb25  1  0.00009200  0.15791700  0.66026000  1
  Sb  Sb26  1  0.50124000  0.14897100  0.54133400  1
  Sb  Sb27  1  0.00000000  0.66768000  0.00000000  1
  Sb  Sb28  1  0.50013500  0.67298300  0.66232100  1
  Sb  Sb29  1  0.00114700  0.66911000  0.53754400  1
  Cl  Cl30  1  0.51104100  0.50645200  0.46648900  1
  O  O31  1  0.00000000  0.17164000  0.95506000  1
  O  O32  1  0.50000000  0.17164000  0.84126000  1
  O  O33  1  0.99980400  0.15525700  0.72934800  1
  O  O34  1  0.49885500  0.16488700  0.61046400  1
  O  O35  1  0.50000000  0.17164000  0.93115000  1
  O  O36  1  0.00000000  0.17164000  0.81736000  1
  O  O37  1  0.50045400  0.17063500  0.70529000  1
  O  O38  1  0.00146700  0.17164800  0.58733100  1
  O  O39  1  0.30253000  0.67164000  0.00000000  1
  O  O40  1  0.80253000  0.67164000  0.88621000  1
  O  O41  1  0.30253000  0.67164000  0.77241000  1
  O  O42  1  0.80549300  0.66802900  0.65936500  1
  O  O43  1  0.32036300  0.66130400  0.54922700  1
  O  O44  1  0.69747000  0.67164000  1.00000000  1
  O  O45  1  0.19747000  0.67164000  0.88621000  1
  O  O46  1  0.69747000  0.67164000  0.77241000  1
  O  O47  1  0.19475000  0.66798100  0.65968900  1
  O  O48  1  0.68234600  0.66140200  0.55007800  1
  O  O49  1  0.30253000  0.32836000  0.00000000  1
  O  O50  1  0.80253000  0.32836000  0.88621000  1
  O  O51  1  0.30253000  0.32836000  0.77241000  1
  O  O52  1  0.80575800  0.32894200  0.65773200  1
  O  O53  1  0.30956700  0.36949900  0.54815500  1
  O  O54  1  0.69747000  0.32836000  1.00000000  1
  O  O55  1  0.19747000  0.32836000  0.88621000  1
  O  O56  1  0.69747000  0.32836000  0.77241000  1
  O  O57  1  0.19451300  0.32896100  0.65800600  1
  O  O58  1  0.69079700  0.36702300  0.54975100  1
  O  O59  1  1.00000000  0.82836000  0.95506000  1
  O  O60  1  0.50000000  0.82836000  0.84126000  1
  O  O61  1  0.99978400  0.84468700  0.72933600  1
  O  O62  1  0.49903400  0.83177100  0.61815200  1
  O  O63  1  0.50000000  0.82836000  0.93115000  1
  O  O64  1  1.00000000  0.82836000  0.81736000  1
  O  O65  1  0.50042100  0.82937300  0.70766100  1
  O  O66  1  0.00225200  0.82825400  0.59059900  1
  O  O67  1  0.00000000  0.50000000  0.95668000  1
  O  O68  1  0.50000000  0.50000000  0.84289000  1
  O  O69  1  0.99950800  0.49998000  0.72830400  1
  O  O70  1  0.49896900  0.50272700  0.61737400  1
  O  O71  1  0.50000000  0.50000000  0.92952000  1
  O  O72  1  0.00000000  0.50000000  0.81573000  1
  O  O73  1  0.50206000  0.49387400  0.70213700  1
  O  O74  1  0.00145800  0.50379700  0.58809900  1
  O  O75  1  0.30966000  0.00000000  0.00000000  1
  O  O76  1  0.80966000  1.00000000  0.88621000  1
  O  O77  1  0.30966000  0.00000000  0.77241000  1
  O  O78  1  0.80138000  0.00078500  0.65520800  1
  O  O79  1  0.31442900  0.97264700  0.54584500  1
  O  O80  1  0.69034000  1.00000000  1.00000000  1
  O  O81  1  0.19034000  0.00000000  0.88621000  1
  O  O82  1  0.69034000  1.00000000  0.77241000  1
  O  O83  1  0.19867900  0.00091200  0.65546500  1
  O  O84  1  0.68784600  0.97264900  0.54593400  1
