# generated using pymatgen
data_MgTiMnVZnCrFeCoCuNiSb20ClO54
_symmetry_space_group_name_H-M   'P 1'
_cell_length_a   6.67390300
_cell_length_b   9.74381600
_cell_length_c   29.59577300
_cell_angle_alpha   90.02870600
_cell_angle_beta   89.96020400
_cell_angle_gamma   89.84205800
_symmetry_Int_Tables_number   1
_chemical_formula_structural   MgTiMnVZnCrFeCoCuNiSb20ClO54
_chemical_formula_sum
'Mg1 Ti1 Mn1 V1 Zn1 Cr1 Fe1 Co1 Cu1 Ni1 Sb20 Cl1 O54'
_cell_volume   1924.58387309
_cell_formula_units_Z   1
loop_
 _symmetry_equiv_pos_site_id
 _symmetry_equiv_pos_as_xyz
  1  'x, y, z'
loop_
 _atom_site_type_symbol
 _atom_site_label
 _atom_site_symmetry_multiplicity
 _atom_site_fract_x
 _atom_site_fract_y
 _atom_site_fract_z
 _atom_site_occupancy
  Mg  Mg0  1  0.50000000  0.83232000  1.00000000  1
  Ti  Ti1  1  0.98953500  0.33700100  0.56906100  1
  Mn  Mn2  1  0.48515400  0.19554800  0.54816200  1
  V  V3  1  0.53023200  0.51327500  0.55221700  1
  Zn  Zn4  1  0.99925000  0.00608500  0.55697700  1
  Cr  Cr5  1  0.00000000  0.00000000  0.00000000  1
  Fe  Fe6  1  1.00000000  0.00000000  0.77241000  1
  Co  Co7  1  0.00153800  0.50940300  0.66240100  1
  Cu  Cu8  1  0.50063100  0.66464000  0.65940400  1
  Ni  Ni9  1  0.00000000  0.33232000  1.00000000  1
  Sb  Sb10  1  0.50000000  1.00000000  0.88621000  1
  Sb  Sb11  1  0.50120800  0.99399100  0.65812900  1
  Sb  Sb12  1  0.50000000  0.50000000  1.00000000  1
  Sb  Sb13  1  0.00000000  0.50000000  0.88621000  1
  Sb  Sb14  1  0.50000000  0.50000000  0.77241000  1
  Sb  Sb15  1  0.50000000  0.33232000  0.88621000  1
  Sb  Sb16  1  0.00000000  0.33232000  0.77241000  1
  Sb  Sb17  1  0.50128200  0.33260000  0.65898000  1
  Sb  Sb18  1  0.00000000  0.83232000  0.88621000  1
  Sb  Sb19  1  0.50000000  0.83232000  0.77241000  1
  Sb  Sb20  1  0.00080700  0.81355300  0.66050400  1
  Sb  Sb21  1  0.50646600  0.88048900  0.54297700  1
  Sb  Sb22  1  0.50000000  0.16768000  1.00000000  1
  Sb  Sb23  1  0.00000000  0.16768000  0.88621000  1
  Sb  Sb24  1  0.50000000  0.16768000  0.77241000  1
  Sb  Sb25  1  0.00133000  0.16598900  0.66296300  1
  Sb  Sb26  1  0.00000000  0.66768000  1.00000000  1
  Sb  Sb27  1  0.50000000  0.66768000  0.88621000  1
  Sb  Sb28  1  0.00000000  0.66768000  0.77241000  1
  Sb  Sb29  1  0.03193400  0.66025100  0.54780000  1
  Cl  Cl30  1  0.49663100  0.47424300  0.47763200  1
  O  O31  1  0.00000000  0.17164000  0.95506000  1
  O  O32  1  0.50000000  0.17164000  0.84126000  1
  O  O33  1  0.99980400  0.15525700  0.72934800  1
  O  O34  1  0.49784600  0.16579400  0.61823300  1
  O  O35  1  0.50000000  0.17164000  0.93115000  1
  O  O36  1  0.00000000  0.17164000  0.81736000  1
  O  O37  1  0.50318400  0.16408200  0.70404700  1
  O  O38  1  0.99451700  0.16595000  0.59710800  1
  O  O39  1  0.30253000  0.67164000  1.00000000  1
  O  O40  1  0.80253000  0.67164000  0.88621000  1
  O  O41  1  0.30253000  0.67164000  0.77241000  1
  O  O42  1  0.80037800  0.66374700  0.66158100  1
  O  O43  1  0.33303800  0.63290200  0.55458100  1
  O  O44  1  0.69747000  0.67164000  1.00000000  1
  O  O45  1  0.19747000  0.67164000  0.88621000  1
  O  O46  1  0.69747000  0.67164000  0.77241000  1
  O  O47  1  0.20183400  0.66379700  0.66235000  1
  O  O48  1  0.70583100  0.63516700  0.55253800  1
  O  O49  1  0.30253000  0.32836000  1.00000000  1
  O  O50  1  0.80253000  0.32836000  0.88621000  1
  O  O51  1  0.30253000  0.32836000  0.77241000  1
  O  O52  1  0.80766400  0.32658800  0.66088200  1
  O  O53  1  0.23178000  0.32269100  0.54391700  1
  O  O54  1  0.69747000  0.32836000  1.00000000  1
  O  O55  1  0.19747000  0.32836000  0.88621000  1
  O  O56  1  0.69747000  0.32836000  0.77241000  1
  O  O57  1  0.19534400  0.32555700  0.66172200  1
  O  O58  1  0.71239200  0.34266300  0.54952800  1
  O  O59  1  0.00000000  0.82836000  0.95506000  1
  O  O60  1  0.50000000  0.82836000  0.84126000  1
  O  O61  1  0.99978400  0.84468700  0.72933600  1
  O  O62  1  0.50301700  0.85186500  0.61121400  1
  O  O63  1  0.50000000  0.82836000  0.93115000  1
  O  O64  1  1.00000000  0.82836000  0.81736000  1
  O  O65  1  0.50088500  0.83996900  0.70394900  1
  O  O66  1  0.00936100  0.82424900  0.58940600  1
  O  O67  1  0.00000000  0.50000000  0.95668000  1
  O  O68  1  0.50000000  0.50000000  0.84289000  1
  O  O69  1  0.99950800  0.49998000  0.72830400  1
  O  O70  1  0.49778100  0.47418500  0.61251200  1
  O  O71  1  0.50000000  0.50000000  0.92952000  1
  O  O72  1  0.00000000  0.50000000  0.81573000  1
  O  O73  1  0.50155800  0.48598900  0.70285900  1
  O  O74  1  0.00829600  0.51076000  0.59513600  1
  O  O75  1  0.30966000  0.00000000  0.00000000  1
  O  O76  1  0.80966000  1.00000000  0.88621000  1
  O  O77  1  0.30966000  0.00000000  0.77241000  1
  O  O78  1  0.81101400  0.99689500  0.66020100  1
  O  O79  1  0.29461300  0.02922600  0.54216700  1
  O  O80  1  0.69034000  1.00000000  1.00000000  1
  O  O81  1  0.19034000  0.00000000  0.88621000  1
  O  O82  1  0.69034000  1.00000000  0.77241000  1
  O  O83  1  0.19168000  0.99766400  0.66030300  1
  O  O84  1  0.70540600  0.03518600  0.54167000  1
