# generated using pymatgen
data_MgTiMnVZnCrFeCoCuNiSb20ClO54
_symmetry_space_group_name_H-M   'P 1'
_cell_length_a   6.66192000
_cell_length_b   9.49480000
_cell_length_c   29.38032600
_cell_angle_alpha   90.16847100
_cell_angle_beta   89.97777000
_cell_angle_gamma   89.99380300
_symmetry_Int_Tables_number   1
_chemical_formula_structural   MgTiMnVZnCrFeCoCuNiSb20ClO54
_chemical_formula_sum
'Mg1 Ti1 Mn1 V1 Zn1 Cr1 Fe1 Co1 Cu1 Ni1 Sb20 Cl1 O54'
_cell_volume   1858.40314569
_cell_formula_units_Z   1
loop_
 _symmetry_equiv_pos_site_id
 _symmetry_equiv_pos_as_xyz
  1  'x, y, z'
loop_
 _atom_site_type_symbol
 _atom_site_label
 _atom_site_symmetry_multiplicity
 _atom_site_fract_x
 _atom_site_fract_y
 _atom_site_fract_z
 _atom_site_occupancy
  Mg  Mg0  1  0.50000000  0.50000000  0.22759000  1
  Ti  Ti1  1  0.00000000  0.16768000  0.11379000  1
  Mn  Mn2  1  0.49975900  0.65925900  0.33575600  1
  V  V3  1  0.50115400  0.50180600  0.44151100  1
  Zn  Zn4  1  0.00000000  0.83232000  0.11379000  1
  Cr  Cr5  1  0.49955500  0.34010100  0.33668600  1
  Fe  Fe6  1  0.50000000  0.66768000  0.11379000  1
  Co  Co7  1  0.00088500  0.99955800  0.44478800  1
  Cu  Cu8  1  0.50000000  0.16768000  0.00000000  1
  Ni  Ni9  1  0.49977800  0.99990100  0.33779100  1
  Sb  Sb10  1  0.00000000  0.00000000  0.00000000  1
  Sb  Sb11  1  0.50000000  1.00000000  0.11379000  1
  Sb  Sb12  1  0.00000000  1.00000000  0.22759000  1
  Sb  Sb13  1  0.50000000  0.50000000  0.00000000  1
  Sb  Sb14  1  0.00000000  0.50000000  0.11379000  1
  Sb  Sb15  1  0.99923200  0.50052600  0.34254000  1
  Sb  Sb16  1  1.00000000  0.66768000  0.00000000  1
  Sb  Sb17  1  0.00000000  0.66768000  0.22759000  1
  Sb  Sb18  1  0.99966300  0.66889100  0.45911300  1
  Sb  Sb19  1  0.50000000  0.16768000  0.22759000  1
  Sb  Sb20  1  0.00001100  0.16637200  0.34377600  1
  Sb  Sb21  1  0.50019100  0.17339400  0.44608000  1
  Sb  Sb22  1  0.50000000  0.83232000  0.00000000  1
  Sb  Sb23  1  0.50000000  0.83232000  0.22759000  1
  Sb  Sb24  1  0.00099400  0.83429100  0.34295900  1
  Sb  Sb25  1  0.50082900  0.82971100  0.44531500  1
  Sb  Sb26  1  0.00000000  0.33232000  0.00000000  1
  Sb  Sb27  1  0.50000000  0.33232000  0.11379000  1
  Sb  Sb28  1  0.00000000  0.33232000  0.22759000  1
  Sb  Sb29  1  0.99932400  0.33560500  0.45902300  1
  Cl  Cl30  1  0.51539400  0.49834900  0.52152900  1
  O  O31  1  0.00000000  0.82836000  0.04494000  1
  O  O32  1  0.50000000  0.82836000  0.15874000  1
  O  O33  1  0.99980400  0.84474300  0.27065200  1
  O  O34  1  0.49776500  0.82295100  0.37800800  1
  O  O35  1  0.50000000  0.82836000  0.06885000  1
  O  O36  1  0.00000000  0.82836000  0.18264000  1
  O  O37  1  0.49911000  0.82793900  0.29492000  1
  O  O38  1  0.00441500  0.81966300  0.41087800  1
  O  O39  1  0.30253000  0.32836000  1.00000000  1
  O  O40  1  0.80253000  0.32836000  0.11379000  1
  O  O41  1  0.30253000  0.32836000  0.22759000  1
  O  O42  1  0.80372700  0.33705800  0.33743500  1
  O  O43  1  0.30909400  0.35740000  0.44337200  1
  O  O44  1  0.69747000  0.32836000  1.00000000  1
  O  O45  1  0.19747000  0.32836000  0.11379000  1
  O  O46  1  0.69747000  0.32836000  0.22759000  1
  O  O47  1  0.19550100  0.33753200  0.33730300  1
  O  O48  1  0.69250100  0.35570000  0.44166100  1
  O  O49  1  0.30253000  0.67164000  1.00000000  1
  O  O50  1  0.80253000  0.67164000  0.11379000  1
  O  O51  1  0.30253000  0.67164000  0.22759000  1
  O  O52  1  0.80379600  0.66396000  0.33755100  1
  O  O53  1  0.31015500  0.64637200  0.44451500  1
  O  O54  1  0.69747000  0.67164000  1.00000000  1
  O  O55  1  0.19747000  0.67164000  0.11379000  1
  O  O56  1  0.69747000  0.67164000  0.22759000  1
  O  O57  1  0.19587600  0.66323300  0.33729400  1
  O  O58  1  0.69245000  0.64775500  0.44238400  1
  O  O59  1  0.00000000  0.17164000  0.04494000  1
  O  O60  1  0.50000000  0.17164000  0.15874000  1
  O  O61  1  0.99978400  0.15531300  0.27066400  1
  O  O62  1  0.49783700  0.17300000  0.37906400  1
  O  O63  1  0.50000000  0.17164000  0.06885000  1
  O  O64  1  0.00000000  0.17164000  0.18264000  1
  O  O65  1  0.50005600  0.17054800  0.29461800  1
  O  O66  1  0.00234600  0.18147700  0.41169600  1
  O  O67  1  0.00000000  0.50000000  0.04332000  1
  O  O68  1  0.50000000  0.50000000  0.15711000  1
  O  O69  1  0.99950800  0.50002000  0.27169600  1
  O  O70  1  0.49880800  0.50221700  0.37855100  1
  O  O71  1  0.50000000  0.50000000  0.07048000  1
  O  O72  1  0.00000000  0.50000000  0.18427000  1
  O  O73  1  0.50112200  0.50481900  0.29703900  1
  O  O74  1  0.00189900  0.50146400  0.41134700  1
  O  O75  1  0.30966000  0.00000000  1.00000000  1
  O  O76  1  0.80966000  1.00000000  0.11379000  1
  O  O77  1  0.30966000  0.00000000  0.22759000  1
  O  O78  1  0.80521700  0.99995000  0.34085900  1
  O  O79  1  0.27473300  0.00114900  0.45000300  1
  O  O80  1  0.69034000  1.00000000  1.00000000  1
  O  O81  1  0.19034000  0.00000000  0.11379000  1
  O  O82  1  0.69034000  1.00000000  0.22759000  1
  O  O83  1  0.19515400  0.00021400  0.34058500  1
  O  O84  1  0.72645000  0.00002200  0.44917700  1
