# generated using pymatgen
data_MgTiMnVZnCrFeCoCuNiSb20ClO54
_symmetry_space_group_name_H-M   'P 1'
_cell_length_a   6.70020000
_cell_length_b   9.62846800
_cell_length_c   29.39802300
_cell_angle_alpha   90.01940300
_cell_angle_beta   89.97925600
_cell_angle_gamma   89.99936800
_symmetry_Int_Tables_number   1
_chemical_formula_structural   MgTiMnVZnCrFeCoCuNiSb20ClO54
_chemical_formula_sum
'Mg1 Ti1 Mn1 V1 Zn1 Cr1 Fe1 Co1 Cu1 Ni1 Sb20 Cl1 O54'
_cell_volume   1896.54446733
_cell_formula_units_Z   1
loop_
 _symmetry_equiv_pos_site_id
 _symmetry_equiv_pos_as_xyz
  1  'x, y, z'
loop_
 _atom_site_type_symbol
 _atom_site_label
 _atom_site_symmetry_multiplicity
 _atom_site_fract_x
 _atom_site_fract_y
 _atom_site_fract_z
 _atom_site_occupancy
  Mg  Mg0  1  0.00000000  0.83232000  0.11379000  1
  Ti  Ti1  1  0.00000000  0.33232000  0.22759000  1
  Mn  Mn2  1  0.99957166  0.17104137  0.34219343  1
  V  V3  1  0.50000000  0.16768000  0.22759000  1
  Zn  Zn4  1  1.00000000  0.33232000  0.00000000  1
  Cr  Cr5  1  0.99980792  0.33630014  0.45452890  1
  Fe  Fe6  1  0.50000000  0.16768000  0.00000000  1
  Co  Co7  1  0.50114648  0.49845971  0.44960095  1
  Cu  Cu8  1  0.00305730  0.00576470  0.43362705  1
  Ni  Ni9  1  0.50000000  0.50000000  0.00000000  1
  Sb  Sb10  1  0.00000000  0.00000000  0.00000000  1
  Sb  Sb11  1  0.50000000  1.00000000  0.11379000  1
  Sb  Sb12  1  0.00000000  0.00000000  0.22759000  1
  Sb  Sb13  1  0.49941301  0.00556224  0.34412692  1
  Sb  Sb14  1  1.00000000  0.50000000  0.11379000  1
  Sb  Sb15  1  0.50000000  0.50000000  0.22759000  1
  Sb  Sb16  1  0.00005265  0.48831415  0.34428437  1
  Sb  Sb17  1  0.00000000  0.66768000  0.00000000  1
  Sb  Sb18  1  0.50000000  0.66768000  0.11379000  1
  Sb  Sb19  1  0.00000000  0.66768000  0.22759000  1
  Sb  Sb20  1  0.49959037  0.66537686  0.34422307  1
  Sb  Sb21  1  0.99956313  0.66214609  0.45984922  1
  Sb  Sb22  1  0.00000000  0.16768000  0.11379000  1
  Sb  Sb23  1  0.50101423  0.18157773  0.46064741  1
  Sb  Sb24  1  0.50000000  0.83232000  0.00000000  1
  Sb  Sb25  1  0.50000000  0.83232000  0.22759000  1
  Sb  Sb26  1  0.99953492  0.84217938  0.34368475  1
  Sb  Sb27  1  0.50072519  0.82073449  0.46109026  1
  Sb  Sb28  1  0.50000000  0.33232000  0.11379000  1
  Sb  Sb29  1  0.49950204  0.32945487  0.34280808  1
  Cl  Cl30  1  0.50902433  0.50216346  0.52412748  1
  O  O31  1  1.00000000  0.82836000  0.04494000  1
  O  O32  1  0.50000000  0.82836000  0.15874000  1
  O  O33  1  0.99980400  0.84474300  0.27065200  1
  O  O34  1  0.49886037  0.83703986  0.38788657  1
  O  O35  1  0.50000000  0.82836000  0.06885000  1
  O  O36  1  0.00000000  0.82836000  0.18264000  1
  O  O37  1  0.50022358  0.83896280  0.29751405  1
  O  O38  1  0.00161053  0.80933752  0.40874722  1
  O  O39  1  0.30253000  0.32836000  0.00000000  1
  O  O40  1  0.80253000  0.32836000  0.11379000  1
  O  O41  1  0.30253000  0.32836000  0.22759000  1
  O  O42  1  0.80087796  0.32738368  0.33806138  1
  O  O43  1  0.30593202  0.34743191  0.44871606  1
  O  O44  1  0.69747000  0.32836000  0.00000000  1
  O  O45  1  0.19747000  0.32836000  0.11379000  1
  O  O46  1  0.69747000  0.32836000  0.22759000  1
  O  O47  1  0.19839123  0.32714195  0.33771953  1
  O  O48  1  0.69526808  0.34773564  0.44697549  1
  O  O49  1  0.30253000  0.67164000  0.00000000  1
  O  O50  1  0.80253000  0.67164000  0.11379000  1
  O  O51  1  0.30253000  0.67164000  0.22759000  1
  O  O52  1  0.80039882  0.67387124  0.33749204  1
  O  O53  1  0.31464258  0.65305553  0.44696731  1
  O  O54  1  0.69747000  0.67164000  0.00000000  1
  O  O55  1  0.19747000  0.67164000  0.11379000  1
  O  O56  1  0.69747000  0.67164000  0.22759000  1
  O  O57  1  0.19910227  0.67408217  0.33716288  1
  O  O58  1  0.68645946  0.65282936  0.44507589  1
  O  O59  1  1.00000000  0.17164000  0.04494000  1
  O  O60  1  0.50000000  0.17164000  0.15874000  1
  O  O61  1  0.99978400  0.15531300  0.27066400  1
  O  O62  1  0.49869522  0.16311791  0.38779033  1
  O  O63  1  0.50000000  0.17164000  0.06885000  1
  O  O64  1  1.00000000  0.17164000  0.18264000  1
  O  O65  1  0.50013130  0.16101967  0.29694620  1
  O  O66  1  0.00175038  0.19101455  0.40967938  1
  O  O67  1  0.00000000  0.50000000  0.04332000  1
  O  O68  1  0.50000000  0.50000000  0.15711000  1
  O  O69  1  0.99950800  0.50002000  0.27169600  1
  O  O70  1  0.49593167  0.50016559  0.38458816  1
  O  O71  1  0.50000000  0.50000000  0.07048000  1
  O  O72  1  0.00000000  0.50000000  0.18427000  1
  O  O73  1  0.50013176  0.50109421  0.29791074  1
  O  O74  1  0.00222528  0.49745634  0.41586135  1
  O  O75  1  0.30966000  0.00000000  0.00000000  1
  O  O76  1  0.80966000  1.00000000  0.11379000  1
  O  O77  1  0.30966000  0.00000000  0.22759000  1
  O  O78  1  0.80766935  0.99770312  0.34768364  1
  O  O79  1  0.23963680  0.99943091  0.46708594  1
  O  O80  1  0.69034000  1.00000000  0.00000000  1
  O  O81  1  0.19034000  0.00000000  0.11379000  1
  O  O82  1  0.69034000  1.00000000  0.22759000  1
  O  O83  1  0.19127869  0.99769759  0.34745343  1
  O  O84  1  0.76945565  0.99999560  0.46804563  1
