# generated using pymatgen
data_MgTiMnVZnCrFeCoCuNiSb20ClO54
_symmetry_space_group_name_H-M   'P 1'
_cell_length_a   6.64587600
_cell_length_b   9.56925100
_cell_length_c   29.06379500
_cell_angle_alpha   89.84361400
_cell_angle_beta   89.99801900
_cell_angle_gamma   89.96053000
_symmetry_Int_Tables_number   1
_chemical_formula_structural   MgTiMnVZnCrFeCoCuNiSb20ClO54
_chemical_formula_sum
'Mg1 Ti1 Mn1 V1 Zn1 Cr1 Fe1 Co1 Cu1 Ni1 Sb20 Cl1 O54'
_cell_volume   1848.33539703
_cell_formula_units_Z   1
loop_
 _symmetry_equiv_pos_site_id
 _symmetry_equiv_pos_as_xyz
  1  'x, y, z'
loop_
 _atom_site_type_symbol
 _atom_site_label
 _atom_site_symmetry_multiplicity
 _atom_site_fract_x
 _atom_site_fract_y
 _atom_site_fract_z
 _atom_site_occupancy
  Mg  Mg0  1  0.99935721  0.81873280  0.33926740  1
  Ti  Ti1  1  0.00374988  0.34170160  0.44933716  1
  Mn  Mn2  1  0.49993838  0.34569636  0.34248319  1
  V  V3  1  0.50000000  0.33232000  0.11379000  1
  Zn  Zn4  1  0.00000000  0.16768000  0.11379000  1
  Cr  Cr5  1  0.00000000  0.83232000  0.11379000  1
  Fe  Fe6  1  0.50000000  0.83232000  1.00000000  1
  Co  Co7  1  0.50082621  0.49283311  0.45060408  1
  Cu  Cu8  1  0.00000000  0.33232000  0.22759000  1
  Ni  Ni9  1  0.49964204  0.65489186  0.34248035  1
  Sb  Sb10  1  0.00000000  0.00000000  0.00000000  1
  Sb  Sb11  1  0.50000000  0.00000000  0.11379000  1
  Sb  Sb12  1  0.00000000  0.00000000  0.22759000  1
  Sb  Sb13  1  0.50042082  0.00014214  0.34813431  1
  Sb  Sb14  1  0.00243213  0.99512696  0.42423726  1
  Sb  Sb15  1  0.50000000  0.50000000  1.00000000  1
  Sb  Sb16  1  0.00000000  0.50000000  0.11379000  1
  Sb  Sb17  1  0.50000000  0.50000000  0.22759000  1
  Sb  Sb18  1  0.00016056  0.51529635  0.33920147  1
  Sb  Sb19  1  0.00000000  0.66768000  0.00000000  1
  Sb  Sb20  1  0.50000000  0.66768000  0.11379000  1
  Sb  Sb21  1  0.00000000  0.66768000  0.22759000  1
  Sb  Sb22  1  0.99888012  0.64919874  0.46003696  1
  Sb  Sb23  1  0.50000000  0.16768000  1.00000000  1
  Sb  Sb24  1  0.50000000  0.16768000  0.22759000  1
  Sb  Sb25  1  0.00010862  0.18183531  0.33677150  1
  Sb  Sb26  1  0.50613594  0.17904791  0.46150809  1
  Sb  Sb27  1  0.50000000  0.83232000  0.22759000  1
  Sb  Sb28  1  0.50000916  0.79913691  0.45882340  1
  Sb  Sb29  1  0.00000000  0.33232000  0.00000000  1
  Cl  Cl30  1  0.50593481  0.53929000  0.52529937  1
  O  O31  1  0.00000000  0.82836000  0.04494000  1
  O  O32  1  0.50000000  0.82836000  0.15874000  1
  O  O33  1  0.99980400  0.84474300  0.27065200  1
  O  O34  1  0.49998603  0.83557163  0.38980201  1
  O  O35  1  0.50000000  0.82836000  0.06885000  1
  O  O36  1  0.00000000  0.82836000  0.18264000  1
  O  O37  1  0.50058999  0.84596701  0.29933155  1
  O  O38  1  0.99854730  0.79622562  0.41097957  1
  O  O39  1  0.30253000  0.32836000  1.00000000  1
  O  O40  1  0.80253000  0.32836000  0.11379000  1
  O  O41  1  0.30253000  0.32836000  0.22759000  1
  O  O42  1  0.80373585  0.34133672  0.33966996  1
  O  O43  1  0.28359455  0.34997143  0.46107625  1
  O  O44  1  0.69747000  0.32836000  1.00000000  1
  O  O45  1  0.19747000  0.32836000  0.11379000  1
  O  O46  1  0.69747000  0.32836000  0.22759000  1
  O  O47  1  0.19675762  0.34131332  0.33888695  1
  O  O48  1  0.71922973  0.34877976  0.46037304  1
  O  O49  1  0.30253000  0.67164000  1.00000000  1
  O  O50  1  0.80253000  0.67164000  0.11379000  1
  O  O51  1  0.30253000  0.67164000  0.22759000  1
  O  O52  1  0.79670390  0.66226605  0.33869944  1
  O  O53  1  0.31006274  0.63935143  0.44302647  1
  O  O54  1  0.69747000  0.67164000  1.00000000  1
  O  O55  1  0.19747000  0.67164000  0.11379000  1
  O  O56  1  0.69747000  0.67164000  0.22759000  1
  O  O57  1  0.20266304  0.66272035  0.33835638  1
  O  O58  1  0.68984340  0.63850549  0.44200927  1
  O  O59  1  0.00000000  0.17164000  0.04494000  1
  O  O60  1  0.50000000  0.17164000  0.15874000  1
  O  O61  1  0.99978400  0.15531300  0.27066400  1
  O  O62  1  0.50166319  0.17591416  0.39055589  1
  O  O63  1  0.50000000  0.17164000  0.06885000  1
  O  O64  1  0.00000000  0.17164000  0.18264000  1
  O  O65  1  0.50035038  0.16062598  0.30063634  1
  O  O66  1  0.00524671  0.19871300  0.40789535  1
  O  O67  1  0.00000000  0.50000000  0.04332000  1
  O  O68  1  0.50000000  0.50000000  0.15711000  1
  O  O69  1  0.99950800  0.50002000  0.27169600  1
  O  O70  1  0.49653574  0.48127698  0.38471422  1
  O  O71  1  0.50000000  0.50000000  0.07048000  1
  O  O72  1  0.00000000  0.50000000  0.18427000  1
  O  O73  1  0.50081157  0.49574941  0.29629891  1
  O  O74  1  0.00268155  0.49443745  0.41120553  1
  O  O75  1  0.30966000  1.00000000  1.00000000  1
  O  O76  1  0.80966000  0.00000000  0.11379000  1
  O  O77  1  0.30966000  0.00000000  0.22759000  1
  O  O78  1  0.81717590  0.00635918  0.35577540  1
  O  O79  1  0.24303348  0.00771391  0.46005798  1
  O  O80  1  0.69034000  1.00000000  1.00000000  1
  O  O81  1  0.19034000  0.00000000  0.11379000  1
  O  O82  1  0.69034000  0.00000000  0.22759000  1
  O  O83  1  0.18363402  0.00554666  0.35583415  1
  O  O84  1  0.76040463  0.01466077  0.45961277  1
