# generated using pymatgen
data_MgTiMnVZnCrFeCoCuNiSb20ClO54
_symmetry_space_group_name_H-M   'P 1'
_cell_length_a   6.67146700
_cell_length_b   9.58385900
_cell_length_c   29.55861000
_cell_angle_alpha   89.71892500
_cell_angle_beta   89.87738700
_cell_angle_gamma   89.99241000
_symmetry_Int_Tables_number   1
_chemical_formula_structural   MgTiMnVZnCrFeCoCuNiSb20ClO54
_chemical_formula_sum
'Mg1 Ti1 Mn1 V1 Zn1 Cr1 Fe1 Co1 Cu1 Ni1 Sb20 Cl1 O54'
_cell_volume   1889.90311877
_cell_formula_units_Z   1
loop_
 _symmetry_equiv_pos_site_id
 _symmetry_equiv_pos_as_xyz
  1  'x, y, z'
loop_
 _atom_site_type_symbol
 _atom_site_label
 _atom_site_symmetry_multiplicity
 _atom_site_fract_x
 _atom_site_fract_y
 _atom_site_fract_z
 _atom_site_occupancy
  Mg  Mg0  1  0.50282604  0.99482898  0.66165120  1
  Ti  Ti1  1  0.00000000  0.00000000  0.00000000  1
  Mn  Mn2  1  0.00182829  0.50977662  0.66208439  1
  V  V3  1  1.00000000  0.33232000  0.77241000  1
  Zn  Zn4  1  0.00000000  0.50000000  0.88621000  1
  Cr  Cr5  1  0.99746339  0.00841510  0.55618777  1
  Fe  Fe6  1  0.50252855  0.66923538  0.66138301  1
  Co  Co7  1  0.49852408  0.49987300  0.55824723  1
  Cu  Cu8  1  0.50000000  0.16768000  1.00000000  1
  Ni  Ni9  1  0.00000000  0.66768000  1.00000000  1
  Sb  Sb10  1  0.50000000  0.00000000  0.88621000  1
  Sb  Sb11  1  0.00000000  0.00000000  0.77241000  1
  Sb  Sb12  1  0.50000000  0.50000000  0.00000000  1
  Sb  Sb13  1  0.50000000  0.50000000  0.77241000  1
  Sb  Sb14  1  0.50000000  0.66768000  0.88621000  1
  Sb  Sb15  1  0.00000000  0.66768000  0.77241000  1
  Sb  Sb16  1  0.00106141  0.66160093  0.54415738  1
  Sb  Sb17  1  1.00000000  0.16768000  0.88621000  1
  Sb  Sb18  1  0.50000000  0.16768000  0.77241000  1
  Sb  Sb19  1  0.00302512  0.16852159  0.66073705  1
  Sb  Sb20  1  0.49852740  0.19239154  0.54942818  1
  Sb  Sb21  1  0.50000000  0.83232000  1.00000000  1
  Sb  Sb22  1  0.00000000  0.83232000  0.88621000  1
  Sb  Sb23  1  0.50000000  0.83232000  0.77241000  1
  Sb  Sb24  1  0.00219115  0.83000359  0.65774027  1
  Sb  Sb25  1  0.49902650  0.81504429  0.55321251  1
  Sb  Sb26  1  1.00000000  0.33232000  1.00000000  1
  Sb  Sb27  1  0.50000000  0.33232000  0.88621000  1
  Sb  Sb28  1  0.50252516  0.33618819  0.65848394  1
  Sb  Sb29  1  0.00175949  0.34822921  0.54746745  1
  Cl  Cl30  1  0.48437456  0.47398714  0.48418777  1
  O  O31  1  0.00000000  0.82836000  0.95506000  1
  O  O32  1  0.50000000  0.82836000  0.84126000  1
  O  O33  1  0.00019600  0.84474300  0.72934800  1
  O  O34  1  0.50485180  0.83011298  0.61925582  1
  O  O35  1  0.50000000  0.82836000  0.93115000  1
  O  O36  1  0.00000000  0.82836000  0.81736000  1
  O  O37  1  0.50105018  0.82876724  0.70655771  1
  O  O38  1  0.00129319  0.83791804  0.58653465  1
  O  O39  1  0.69747000  0.32836000  1.00000000  1
  O  O40  1  0.19747000  0.32836000  0.88621000  1
  O  O41  1  0.69747000  0.32836000  0.77241000  1
  O  O42  1  0.19070113  0.33992941  0.66206767  1
  O  O43  1  0.68960973  0.35019676  0.56153015  1
  O  O44  1  0.30253000  0.32836000  1.00000000  1
  O  O45  1  0.80253000  0.32836000  0.88621000  1
  O  O46  1  0.30253000  0.32836000  0.77241000  1
  O  O47  1  0.81433613  0.33923923  0.66170726  1
  O  O48  1  0.30960363  0.35065608  0.56458245  1
  O  O49  1  0.69747000  0.67164000  1.00000000  1
  O  O50  1  0.19747000  0.67164000  0.88621000  1
  O  O51  1  0.69747000  0.67164000  0.77241000  1
  O  O52  1  0.18968141  0.65631072  0.66210795  1
  O  O53  1  0.68822876  0.65200275  0.55431026  1
  O  O54  1  0.30253000  0.67164000  1.00000000  1
  O  O55  1  0.80253000  0.67164000  0.88621000  1
  O  O56  1  0.30253000  0.67164000  0.77241000  1
  O  O57  1  0.81497146  0.65707299  0.66260740  1
  O  O58  1  0.31036509  0.65185609  0.55753483  1
  O  O59  1  1.00000000  0.17164000  0.95506000  1
  O  O60  1  0.50000000  0.17164000  0.84126000  1
  O  O61  1  0.00021600  0.15531300  0.72933600  1
  O  O62  1  0.50279949  0.16462252  0.61742798  1
  O  O63  1  0.50000000  0.17164000  0.93115000  1
  O  O64  1  1.00000000  0.17164000  0.81736000  1
  O  O65  1  0.50223478  0.17320342  0.70463660  1
  O  O66  1  0.00206819  0.17134283  0.59020337  1
  O  O67  1  0.00000000  0.50000000  0.95668000  1
  O  O68  1  0.50000000  0.50000000  0.84289000  1
  O  O69  1  0.00049200  0.50002000  0.72830400  1
  O  O70  1  0.50717280  0.50853491  0.62054505  1
  O  O71  1  0.50000000  0.50000000  0.92952000  1
  O  O72  1  0.00000000  0.50000000  0.81573000  1
  O  O73  1  0.50198579  0.49705721  0.70431740  1
  O  O74  1  0.99686367  0.50776296  0.59329113  1
  O  O75  1  0.69034000  1.00000000  1.00000000  1
  O  O76  1  0.19034000  0.00000000  0.88621000  1
  O  O77  1  0.69034000  1.00000000  0.77241000  1
  O  O78  1  0.19271578  0.00238124  0.65845392  1
  O  O79  1  0.78083613  0.01254064  0.52980895  1
  O  O80  1  0.30966000  0.00000000  1.00000000  1
  O  O81  1  0.80966000  1.00000000  0.88621000  1
  O  O82  1  0.30966000  0.00000000  0.77241000  1
  O  O83  1  0.81282170  0.00280803  0.65844565  1
  O  O84  1  0.20488295  0.01240927  0.52658334  1
