# generated using pymatgen
data_MgTiMnVZnCrFeCoCuNiSb20ClO54
_symmetry_space_group_name_H-M   'P 1'
_cell_length_a   6.65115700
_cell_length_b   9.59951900
_cell_length_c   29.37261000
_cell_angle_alpha   90.07921000
_cell_angle_beta   89.97354100
_cell_angle_gamma   89.99537500
_symmetry_Int_Tables_number   1
_chemical_formula_structural   MgTiMnVZnCrFeCoCuNiSb20ClO54
_chemical_formula_sum
'Mg1 Ti1 Mn1 V1 Zn1 Cr1 Fe1 Co1 Cu1 Ni1 Sb20 Cl1 O54'
_cell_volume   1875.37770249
_cell_formula_units_Z   1
loop_
 _symmetry_equiv_pos_site_id
 _symmetry_equiv_pos_as_xyz
  1  'x, y, z'
loop_
 _atom_site_type_symbol
 _atom_site_label
 _atom_site_symmetry_multiplicity
 _atom_site_fract_x
 _atom_site_fract_y
 _atom_site_fract_z
 _atom_site_occupancy
  Mg  Mg0  1  0.50000000  0.16768000  0.00000000  1
  Ti  Ti1  1  0.50000000  0.66768000  0.11379000  1
  Mn  Mn2  1  0.49928715  0.32684166  0.34046852  1
  V  V3  1  0.50000000  0.50000000  0.22759000  1
  Zn  Zn4  1  0.50027267  0.81572409  0.44718297  1
  Cr  Cr5  1  0.99939360  0.17915171  0.34038530  1
  Fe  Fe6  1  1.00000000  0.33232000  0.00000000  1
  Co  Co7  1  0.50009167  0.49508053  0.44320462  1
  Cu  Cu8  1  0.00000000  0.66768000  0.00000000  1
  Ni  Ni9  1  0.99911330  0.48661334  0.33859604  1
  Sb  Sb10  1  0.00000000  0.00000000  0.00000000  1
  Sb  Sb11  1  0.50000000  1.00000000  0.11379000  1
  Sb  Sb12  1  1.00000000  1.00000000  0.22759000  1
  Sb  Sb13  1  0.49867464  0.00064033  0.34243553  1
  Sb  Sb14  1  0.99995895  0.00737461  0.45691269  1
  Sb  Sb15  1  0.50000000  0.50000000  0.00000000  1
  Sb  Sb16  1  1.00000000  0.50000000  0.11379000  1
  Sb  Sb17  1  1.00000000  0.66768000  0.22759000  1
  Sb  Sb18  1  0.49870481  0.65683275  0.33948204  1
  Sb  Sb19  1  0.00002582  0.65436034  0.45259176  1
  Sb  Sb20  1  1.00000000  0.16768000  0.11379000  1
  Sb  Sb21  1  0.50000000  0.16768000  0.22759000  1
  Sb  Sb22  1  0.49973081  0.16667753  0.45305787  1
  Sb  Sb23  1  0.50000000  0.83232000  0.00000000  1
  Sb  Sb24  1  0.00000000  0.83232000  0.11379000  1
  Sb  Sb25  1  0.50000000  0.83232000  0.22759000  1
  Sb  Sb26  1  0.99885730  0.83262655  0.34243569  1
  Sb  Sb27  1  0.50000000  0.33232000  0.11379000  1
  Sb  Sb28  1  1.00000000  0.33232000  0.22759000  1
  Sb  Sb29  1  0.99970357  0.33659949  0.45014439  1
  Cl  Cl30  1  0.50201384  0.48069411  0.51660865  1
  O  O31  1  1.00000000  0.82836000  0.04494000  1
  O  O32  1  0.50000000  0.82836000  0.15874000  1
  O  O33  1  0.99980400  0.84474300  0.27065200  1
  O  O34  1  0.49730398  0.82814052  0.37899396  1
  O  O35  1  0.50000000  0.82836000  0.06885000  1
  O  O36  1  1.00000000  0.82836000  0.18264000  1
  O  O37  1  0.49940041  0.83653615  0.29504469  1
  O  O38  1  0.00002614  0.83234365  0.41098933  1
  O  O39  1  0.30253000  0.32836000  0.00000000  1
  O  O40  1  0.80253000  0.32836000  0.11379000  1
  O  O41  1  0.30253000  0.32836000  0.22759000  1
  O  O42  1  0.80277372  0.32392967  0.33656820  1
  O  O43  1  0.31341208  0.34340786  0.43889811  1
  O  O44  1  0.69747000  0.32836000  0.00000000  1
  O  O45  1  0.19747000  0.32836000  0.11379000  1
  O  O46  1  0.69747000  0.32836000  0.22759000  1
  O  O47  1  0.19540774  0.32382815  0.33647546  1
  O  O48  1  0.68616003  0.34303407  0.43867382  1
  O  O49  1  0.30253000  0.67164000  0.00000000  1
  O  O50  1  0.80253000  0.67164000  0.11379000  1
  O  O51  1  0.30253000  0.67164000  0.22759000  1
  O  O52  1  0.80514242  0.67014510  0.33570502  1
  O  O53  1  0.31323152  0.64773981  0.44356068  1
  O  O54  1  0.69747000  0.67164000  0.00000000  1
  O  O55  1  0.19747000  0.67164000  0.11379000  1
  O  O56  1  0.69747000  0.67164000  0.22759000  1
  O  O57  1  0.19232263  0.67004464  0.33550364  1
  O  O58  1  0.68687637  0.64758170  0.44340139  1
  O  O59  1  0.00000000  0.17164000  0.04494000  1
  O  O60  1  0.50000000  0.17164000  0.15874000  1
  O  O61  1  0.99978400  0.15531300  0.27066400  1
  O  O62  1  0.49763814  0.16139870  0.38312049  1
  O  O63  1  0.50000000  0.17164000  0.06885000  1
  O  O64  1  1.00000000  0.17164000  0.18264000  1
  O  O65  1  0.49913280  0.16018677  0.29638983  1
  O  O66  1  0.00003385  0.16627475  0.40769493  1
  O  O67  1  1.00000000  0.50000000  0.04332000  1
  O  O68  1  0.50000000  0.50000000  0.15711000  1
  O  O69  1  0.99950800  0.50002000  0.27169600  1
  O  O70  1  0.49824619  0.49140640  0.37793195  1
  O  O71  1  0.50000000  0.50000000  0.07048000  1
  O  O72  1  1.00000000  0.50000000  0.18427000  1
  O  O73  1  0.49911869  0.50355852  0.28963341  1
  O  O74  1  0.99996664  0.49668744  0.40601449  1
  O  O75  1  0.30966000  0.00000000  0.00000000  1
  O  O76  1  0.80966000  1.00000000  0.11379000  1
  O  O77  1  0.30966000  0.00000000  0.22759000  1
  O  O78  1  0.80641771  0.00010863  0.33929624  1
  O  O79  1  0.30859356  0.99196302  0.44771293  1
  O  O80  1  0.69034000  1.00000000  0.00000000  1
  O  O81  1  0.19034000  0.00000000  0.11379000  1
  O  O82  1  0.69034000  1.00000000  0.22759000  1
  O  O83  1  0.19108580  0.00020272  0.33875745  1
  O  O84  1  0.69131196  0.99198102  0.44756566  1
