# generated using pymatgen
data_MgTiMnVZnCrFeCoCuNiSb20ClO54
_symmetry_space_group_name_H-M   'P 1'
_cell_length_a   6.69622800
_cell_length_b   9.51946500
_cell_length_c   29.03101800
_cell_angle_alpha   89.85721400
_cell_angle_beta   89.99712900
_cell_angle_gamma   89.98961700
_symmetry_Int_Tables_number   1
_chemical_formula_structural   MgTiMnVZnCrFeCoCuNiSb20ClO54
_chemical_formula_sum
'Mg1 Ti1 Mn1 V1 Zn1 Cr1 Fe1 Co1 Cu1 Ni1 Sb20 Cl1 O54'
_cell_volume   1850.56218228
_cell_formula_units_Z   1
loop_
 _symmetry_equiv_pos_site_id
 _symmetry_equiv_pos_as_xyz
  1  'x, y, z'
loop_
 _atom_site_type_symbol
 _atom_site_label
 _atom_site_symmetry_multiplicity
 _atom_site_fract_x
 _atom_site_fract_y
 _atom_site_fract_z
 _atom_site_occupancy
  Mg  Mg0  1  0.50043147  0.33253768  0.34362957  1
  Ti  Ti1  1  0.50000000  1.00000000  0.11379000  1
  Mn  Mn2  1  0.00138533  0.66867638  0.44802934  1
  V  V3  1  0.50000000  0.83232000  0.00000000  1
  Zn  Zn4  1  0.50000000  0.66768000  0.11379000  1
  Cr  Cr5  1  0.50000000  0.16768000  0.22759000  1
  Fe  Fe6  1  0.00000000  0.66768000  0.00000000  1
  Co  Co7  1  0.50124599  0.51054812  0.45103738  1
  Cu  Cu8  1  1.00000000  1.00000000  0.22759000  1
  Ni  Ni9  1  0.50043589  0.81488764  0.45211013  1
  Sb  Sb10  1  0.00000000  0.00000000  0.00000000  1
  Sb  Sb11  1  0.50049084  0.01029484  0.34007772  1
  Sb  Sb12  1  0.00021625  0.99209132  0.45915179  1
  Sb  Sb13  1  0.50000000  0.50000000  0.00000000  1
  Sb  Sb14  1  0.00000000  0.50000000  0.11379000  1
  Sb  Sb15  1  0.50000000  0.50000000  0.22759000  1
  Sb  Sb16  1  0.00017827  0.49173627  0.34458956  1
  Sb  Sb17  1  0.00000000  0.66768000  0.22759000  1
  Sb  Sb18  1  0.50039963  0.66164368  0.34577758  1
  Sb  Sb19  1  0.50000000  0.16768000  0.00000000  1
  Sb  Sb20  1  1.00000000  0.16768000  0.11379000  1
  Sb  Sb21  1  0.00087760  0.17359859  0.33909443  1
  Sb  Sb22  1  0.50030076  0.17943188  0.45821631  1
  Sb  Sb23  1  0.00000000  0.83232000  0.11379000  1
  Sb  Sb24  1  0.50000000  0.83232000  0.22759000  1
  Sb  Sb25  1  0.00063232  0.83566366  0.33977395  1
  Sb  Sb26  1  1.00000000  0.33232000  0.00000000  1
  Sb  Sb27  1  0.50000000  0.33232000  0.11379000  1
  Sb  Sb28  1  1.00000000  0.33232000  0.22759000  1
  Sb  Sb29  1  0.00050618  0.33422986  0.45992896  1
  Cl  Cl30  1  0.50502193  0.48737985  0.52529992  1
  O  O31  1  0.00000000  0.82836000  0.04494000  1
  O  O32  1  0.50000000  0.82836000  0.15874000  1
  O  O33  1  0.99980400  0.84474300  0.27065200  1
  O  O34  1  0.49812759  0.83883677  0.38350544  1
  O  O35  1  0.50000000  0.82836000  0.06885000  1
  O  O36  1  0.00000000  0.82836000  0.18264000  1
  O  O37  1  0.50182655  0.82535850  0.29777679  1
  O  O38  1  0.00248616  0.83701206  0.40836179  1
  O  O39  1  0.30253000  0.32836000  0.00000000  1
  O  O40  1  0.80253000  0.32836000  0.11379000  1
  O  O41  1  0.30253000  0.32836000  0.22759000  1
  O  O42  1  0.80518312  0.33448999  0.33896301  1
  O  O43  1  0.30989850  0.35090656  0.44647435  1
  O  O44  1  0.69747000  0.32836000  0.00000000  1
  O  O45  1  0.19747000  0.32836000  0.11379000  1
  O  O46  1  0.69747000  0.32836000  0.22759000  1
  O  O47  1  0.19577911  0.33474040  0.33864842  1
  O  O48  1  0.69150210  0.35008537  0.44585088  1
  O  O49  1  0.30253000  0.67164000  0.00000000  1
  O  O50  1  0.80253000  0.67164000  0.11379000  1
  O  O51  1  0.30253000  0.67164000  0.22759000  1
  O  O52  1  0.81013471  0.66207660  0.34011788  1
  O  O53  1  0.30745588  0.66315822  0.45296635  1
  O  O54  1  0.69747000  0.67164000  0.00000000  1
  O  O55  1  0.19747000  0.67164000  0.11379000  1
  O  O56  1  0.69747000  0.67164000  0.22759000  1
  O  O57  1  0.19080499  0.66160857  0.33936653  1
  O  O58  1  0.69512653  0.66388179  0.45227468  1
  O  O59  1  1.00000000  0.17164000  0.04494000  1
  O  O60  1  0.50000000  0.17164000  0.15874000  1
  O  O61  1  0.99978400  0.15531300  0.27066400  1
  O  O62  1  0.49953380  0.15882021  0.38739113  1
  O  O63  1  0.50000000  0.17164000  0.06885000  1
  O  O64  1  1.00000000  0.17164000  0.18264000  1
  O  O65  1  0.50027171  0.16670080  0.29570443  1
  O  O66  1  0.00251260  0.16737285  0.40955286  1
  O  O67  1  0.00000000  0.50000000  0.04332000  1
  O  O68  1  0.50000000  0.50000000  0.15711000  1
  O  O69  1  0.99950800  0.50002000  0.27169600  1
  O  O70  1  0.49875109  0.50209296  0.38594254  1
  O  O71  1  0.50000000  0.50000000  0.07048000  1
  O  O72  1  0.00000000  0.50000000  0.18427000  1
  O  O73  1  0.50268677  0.50883437  0.29624931  1
  O  O74  1  0.00152750  0.49489456  0.41194830  1
  O  O75  1  0.30966000  0.00000000  0.00000000  1
  O  O76  1  0.80966000  1.00000000  0.11379000  1
  O  O77  1  0.30966000  1.00000000  0.22759000  1
  O  O78  1  0.80677269  0.00477136  0.34107665  1
  O  O79  1  0.30368460  0.95765858  0.46043518  1
  O  O80  1  0.69034000  0.00000000  0.00000000  1
  O  O81  1  0.19034000  1.00000000  0.11379000  1
  O  O82  1  0.69034000  1.00000000  0.22759000  1
  O  O83  1  0.19422398  0.00472027  0.34071086  1
  O  O84  1  0.69647169  0.95816248  0.45982737  1
