# generated using pymatgen
data_MgTiMnVZnCrFeCoCuNiSb20ClO54
_symmetry_space_group_name_H-M   'P 1'
_cell_length_a   6.60668600
_cell_length_b   9.67803600
_cell_length_c   29.33842800
_cell_angle_alpha   90.16457500
_cell_angle_beta   89.99737400
_cell_angle_gamma   89.99984300
_symmetry_Int_Tables_number   1
_chemical_formula_structural   MgTiMnVZnCrFeCoCuNiSb20ClO54
_chemical_formula_sum
'Mg1 Ti1 Mn1 V1 Zn1 Cr1 Fe1 Co1 Cu1 Ni1 Sb20 Cl1 O54'
_cell_volume   1875.88386298
_cell_formula_units_Z   1
loop_
 _symmetry_equiv_pos_site_id
 _symmetry_equiv_pos_as_xyz
  1  'x, y, z'
loop_
 _atom_site_type_symbol
 _atom_site_label
 _atom_site_symmetry_multiplicity
 _atom_site_fract_x
 _atom_site_fract_y
 _atom_site_fract_z
 _atom_site_occupancy
  Mg  Mg0  1  0.49935241  0.85929516  0.45262300  1
  Ti  Ti1  1  0.00000000  0.00000000  0.00000000  1
  Mn  Mn2  1  0.49859273  0.17984734  0.45195171  1
  V  V3  1  0.50000000  0.50000000  1.00000000  1
  Zn  Zn4  1  1.00000000  0.33232000  0.00000000  1
  Cr  Cr5  1  0.99964677  0.33990415  0.44349128  1
  Fe  Fe6  1  0.50000000  0.16768000  0.22759000  1
  Co  Co7  1  0.50169186  0.49098041  0.45131600  1
  Cu  Cu8  1  0.99876918  0.49722104  0.33907250  1
  Ni  Ni9  1  0.50000000  0.33232000  0.11379000  1
  Sb  Sb10  1  0.50000000  1.00000000  0.11379000  1
  Sb  Sb11  1  0.00000000  0.00000000  0.22759000  1
  Sb  Sb12  1  0.50045253  0.00207880  0.33788927  1
  Sb  Sb13  1  0.99866177  0.02163029  0.46457913  1
  Sb  Sb14  1  1.00000000  0.50000000  0.11379000  1
  Sb  Sb15  1  0.50000000  0.50000000  0.22759000  1
  Sb  Sb16  1  1.00000000  0.66768000  0.00000000  1
  Sb  Sb17  1  0.50000000  0.66768000  0.11379000  1
  Sb  Sb18  1  1.00000000  0.66768000  0.22759000  1
  Sb  Sb19  1  0.50028900  0.65721168  0.37126499  1
  Sb  Sb20  1  0.00085392  0.63834048  0.45456887  1
  Sb  Sb21  1  0.50000000  0.16768000  1.00000000  1
  Sb  Sb22  1  0.00000000  0.16768000  0.11379000  1
  Sb  Sb23  1  0.00056591  0.16643810  0.34228592  1
  Sb  Sb24  1  0.50000000  0.83232000  1.00000000  1
  Sb  Sb25  1  0.00000000  0.83232000  0.11379000  1
  Sb  Sb26  1  0.50000000  0.83232000  0.22759000  1
  Sb  Sb27  1  0.00036969  0.81133122  0.34807076  1
  Sb  Sb28  1  0.00000000  0.33232000  0.22759000  1
  Sb  Sb29  1  0.50012392  0.32281612  0.33659769  1
  Cl  Cl30  1  0.50152446  0.55604689  0.52162151  1
  O  O31  1  1.00000000  0.82836000  0.04494000  1
  O  O32  1  0.50000000  0.82836000  0.15874000  1
  O  O33  1  0.99980400  0.84474300  0.27065200  1
  O  O34  1  0.50110617  0.86026440  0.38567893  1
  O  O35  1  0.50000000  0.82836000  0.06885000  1
  O  O36  1  1.00000000  0.82836000  0.18264000  1
  O  O37  1  0.49972007  0.84227927  0.29543139  1
  O  O38  1  0.99847852  0.83717956  0.42742483  1
  O  O39  1  0.30253000  0.32836000  0.00000000  1
  O  O40  1  0.80253000  0.32836000  0.11379000  1
  O  O41  1  0.30253000  0.32836000  0.22759000  1
  O  O42  1  0.80401872  0.31852889  0.33572850  1
  O  O43  1  0.28764821  0.33333333  0.45594515  1
  O  O44  1  0.69747000  0.32836000  1.00000000  1
  O  O45  1  0.19747000  0.32836000  0.11379000  1
  O  O46  1  0.69747000  0.32836000  0.22759000  1
  O  O47  1  0.19604950  0.31924777  0.33572914  1
  O  O48  1  0.71262932  0.33333333  0.45621391  1
  O  O49  1  0.30253000  0.67164000  0.00000000  1
  O  O50  1  0.80253000  0.67164000  0.11379000  1
  O  O51  1  0.30253000  0.67164000  0.22759000  1
  O  O52  1  0.77196392  0.66065230  0.34117854  1
  O  O53  1  0.32448676  0.64935496  0.43581864  1
  O  O54  1  0.69747000  0.67164000  1.00000000  1
  O  O55  1  0.19747000  0.67164000  0.11379000  1
  O  O56  1  0.69747000  0.67164000  0.22759000  1
  O  O57  1  0.22867379  0.66000034  0.34158137  1
  O  O58  1  0.67872118  0.64857895  0.43549788  1
  O  O59  1  1.00000000  0.17164000  0.04494000  1
  O  O60  1  0.50000000  0.17164000  0.15874000  1
  O  O61  1  0.99978400  0.15531300  0.27066400  1
  O  O62  1  0.49941028  0.16405195  0.38144499  1
  O  O63  1  0.50000000  0.17164000  0.06885000  1
  O  O64  1  1.00000000  0.17164000  0.18264000  1
  O  O65  1  0.50055995  0.15987274  0.29339809  1
  O  O66  1  0.99856754  0.16410913  0.41071216  1
  O  O67  1  1.00000000  0.50000000  0.04332000  1
  O  O68  1  0.50000000  0.50000000  0.15711000  1
  O  O69  1  0.99950800  0.50002000  0.27169600  1
  O  O70  1  0.50055891  0.45727512  0.38726456  1
  O  O71  1  0.50000000  0.50000000  0.07048000  1
  O  O72  1  0.00000000  0.50000000  0.18427000  1
  O  O73  1  0.49988164  0.48657933  0.29683547  1
  O  O74  1  0.00200500  0.48909495  0.40561624  1
  O  O75  1  0.30966000  0.00000000  0.00000000  1
  O  O76  1  0.80966000  1.00000000  0.11379000  1
  O  O77  1  0.30966000  0.00000000  0.22759000  1
  O  O78  1  0.80461901  0.00789940  0.33873536  1
  O  O79  1  0.31303786  0.02858247  0.45843586  1
  O  O80  1  0.69034000  1.00000000  1.00000000  1
  O  O81  1  0.19034000  0.00000000  0.11379000  1
  O  O82  1  0.69034000  1.00000000  0.22759000  1
  O  O83  1  0.19631787  0.00756619  0.33857982  1
  O  O84  1  0.68400743  0.02885593  0.45857330  1
