# generated using pymatgen
data_MgTiMnVZnCrFeCoCuNiSb20ClO54
_symmetry_space_group_name_H-M   'P 1'
_cell_length_a   6.55833100
_cell_length_b   9.69330800
_cell_length_c   28.50028200
_cell_angle_alpha   89.74686400
_cell_angle_beta   89.98559500
_cell_angle_gamma   89.99726500
_symmetry_Int_Tables_number   1
_chemical_formula_structural   MgTiMnVZnCrFeCoCuNiSb20ClO54
_chemical_formula_sum
'Mg1 Ti1 Mn1 V1 Zn1 Cr1 Fe1 Co1 Cu1 Ni1 Sb20 Cl1 O54'
_cell_volume   1811.79997239
_cell_formula_units_Z   1
loop_
 _symmetry_equiv_pos_site_id
 _symmetry_equiv_pos_as_xyz
  1  'x, y, z'
loop_
 _atom_site_type_symbol
 _atom_site_label
 _atom_site_symmetry_multiplicity
 _atom_site_fract_x
 _atom_site_fract_y
 _atom_site_fract_z
 _atom_site_occupancy
  Mg  Mg0  1  0.99941827  0.49456377  0.33990494  1
  Ti  Ti1  1  0.50000000  0.00000000  0.11379000  1
  Mn  Mn2  1  0.00000000  0.33232000  0.00000000  1
  V  V3  1  0.50000000  0.66768000  0.11379000  1
  Zn  Zn4  1  0.00000000  0.66768000  0.00000000  1
  Cr  Cr5  1  0.99900770  0.63717629  0.44733660  1
  Fe  Fe6  1  0.00000000  0.83232000  0.11379000  1
  Co  Co7  1  0.49865672  0.49255675  0.45479647  1
  Cu  Cu8  1  0.00000000  0.00000000  0.00000000  1
  Ni  Ni9  1  0.00000000  0.33232000  0.22759000  1
  Sb  Sb10  1  0.00000000  0.00000000  0.22759000  1
  Sb  Sb11  1  0.49976973  0.00272834  0.35156513  1
  Sb  Sb12  1  0.99951453  0.01259669  0.46888392  1
  Sb  Sb13  1  0.50000000  0.50000000  0.00000000  1
  Sb  Sb14  1  0.00000000  0.50000000  0.11379000  1
  Sb  Sb15  1  0.50000000  0.50000000  0.22759000  1
  Sb  Sb16  1  0.50000000  0.33232000  0.11379000  1
  Sb  Sb17  1  0.49931939  0.33112638  0.34800957  1
  Sb  Sb18  1  0.99963561  0.34610936  0.46196559  1
  Sb  Sb19  1  0.50000000  0.83232000  0.00000000  1
  Sb  Sb20  1  0.50000000  0.83232000  0.22759000  1
  Sb  Sb21  1  0.99998930  0.81942398  0.35450321  1
  Sb  Sb22  1  0.49919909  0.81170856  0.46741962  1
  Sb  Sb23  1  0.50000000  0.16768000  0.00000000  1
  Sb  Sb24  1  0.00000000  0.16768000  0.11379000  1
  Sb  Sb25  1  0.50000000  0.16768000  0.22759000  1
  Sb  Sb26  1  0.99942508  0.17236131  0.34333983  1
  Sb  Sb27  1  0.49932349  0.17515231  0.47168462  1
  Sb  Sb28  1  0.00000000  0.66768000  0.22759000  1
  Sb  Sb29  1  0.49981348  0.66240447  0.34593081  1
  Cl  Cl30  1  0.49559806  0.48147928  0.53054359  1
  O  O31  1  0.00000000  0.17164000  0.04494000  1
  O  O32  1  0.50000000  0.17164000  0.15874000  1
  O  O33  1  0.00019600  0.15525700  0.27065200  1
  O  O34  1  0.50029982  0.16999876  0.39190903  1
  O  O35  1  0.50000000  0.17164000  0.06885000  1
  O  O36  1  0.00000000  0.17164000  0.18264000  1
  O  O37  1  0.49972819  0.16391121  0.30056223  1
  O  O38  1  0.99925244  0.17213894  0.41560829  1
  O  O39  1  0.69747000  0.67164000  0.00000000  1
  O  O40  1  0.19747000  0.67164000  0.11379000  1
  O  O41  1  0.69747000  0.67164000  0.22759000  1
  O  O42  1  0.20449305  0.65765942  0.34046550  1
  O  O43  1  0.70844563  0.64201990  0.45328817  1
  O  O44  1  0.30253000  0.67164000  0.00000000  1
  O  O45  1  0.80253000  0.67164000  0.11379000  1
  O  O46  1  0.30253000  0.67164000  0.22759000  1
  O  O47  1  0.79525379  0.65797406  0.34028344  1
  O  O48  1  0.28935964  0.64196451  0.45295939  1
  O  O49  1  0.69747000  0.32836000  0.00000000  1
  O  O50  1  0.19747000  0.32836000  0.11379000  1
  O  O51  1  0.69747000  0.32836000  0.22759000  1
  O  O52  1  0.19723560  0.32711071  0.34031908  1
  O  O53  1  0.68372932  0.34298960  0.44817924  1
  O  O54  1  0.30253000  0.32836000  0.00000000  1
  O  O55  1  0.80253000  0.32836000  0.11379000  1
  O  O56  1  0.30253000  0.32836000  0.22759000  1
  O  O57  1  0.80141450  0.32708140  0.34044371  1
  O  O58  1  0.31464723  0.34275925  0.44770492  1
  O  O59  1  0.00000000  0.82836000  0.04494000  1
  O  O60  1  0.50000000  0.82836000  0.15874000  1
  O  O61  1  0.00021600  0.84468700  0.27066400  1
  O  O62  1  0.50025714  0.82348369  0.39201998  1
  O  O63  1  0.50000000  0.82836000  0.06885000  1
  O  O64  1  0.00000000  0.82836000  0.18264000  1
  O  O65  1  0.49933651  0.83802857  0.30180158  1
  O  O66  1  0.99896876  0.83105305  0.43727938  1
  O  O67  1  0.00000000  0.50000000  0.04332000  1
  O  O68  1  0.50000000  0.50000000  0.15711000  1
  O  O69  1  0.00049200  0.49998000  0.27169600  1
  O  O70  1  0.50048653  0.49910032  0.38862419  1
  O  O71  1  0.50000000  0.50000000  0.07048000  1
  O  O72  1  0.00000000  0.50000000  0.18427000  1
  O  O73  1  0.49966956  0.49503159  0.30052239  1
  O  O74  1  0.99877810  0.48349251  0.41035417  1
  O  O75  1  0.69034000  1.00000000  0.00000000  1
  O  O76  1  0.19034000  0.00000000  0.11379000  1
  O  O77  1  0.69034000  1.00000000  0.22759000  1
  O  O78  1  0.19998108  0.01363472  0.34314859  1
  O  O79  1  0.69258393  0.00350947  0.44979539  1
  O  O80  1  0.30966000  0.00000000  1.00000000  1
  O  O81  1  0.80966000  1.00000000  0.11379000  1
  O  O82  1  0.30966000  0.00000000  0.22759000  1
  O  O83  1  0.79962723  0.01328789  0.34315674  1
  O  O84  1  0.30612498  0.00356335  0.44937622  1
