# generated using pymatgen
data_MgTiMnVZnCrFeCoCuNiSb20ClO54
_symmetry_space_group_name_H-M   'P 1'
_cell_length_a   6.69803600
_cell_length_b   9.61834300
_cell_length_c   29.71991500
_cell_angle_alpha   89.76461200
_cell_angle_beta   89.84762900
_cell_angle_gamma   89.67887900
_symmetry_Int_Tables_number   1
_chemical_formula_structural   MgTiMnVZnCrFeCoCuNiSb20ClO54
_chemical_formula_sum
'Mg1 Ti1 Mn1 V1 Zn1 Cr1 Fe1 Co1 Cu1 Ni1 Sb20 Cl1 O54'
_cell_volume   1914.62314871
_cell_formula_units_Z   1
loop_
 _symmetry_equiv_pos_site_id
 _symmetry_equiv_pos_as_xyz
  1  'x, y, z'
loop_
 _atom_site_type_symbol
 _atom_site_label
 _atom_site_symmetry_multiplicity
 _atom_site_fract_x
 _atom_site_fract_y
 _atom_site_fract_z
 _atom_site_occupancy
  Mg  Mg0  1  0.50000000  0.83232000  0.77241000  1
  Ti  Ti1  1  0.05030258  0.28927189  0.55632988  1
  Mn  Mn2  1  0.55592025  0.21465842  0.56058571  1
  V  V3  1  0.00000000  0.00000000  0.77241000  1
  Zn  Zn4  1  0.00000000  0.16768000  0.88621000  1
  Cr  Cr5  1  0.50215055  0.67050401  0.66128133  1
  Fe  Fe6  1  0.50000000  0.16768000  0.77241000  1
  Co  Co7  1  0.51128208  0.49366174  0.55627508  1
  Cu  Cu8  1  0.07789133  0.16516788  0.67036830  1
  Ni  Ni9  1  0.49276319  0.98627490  0.65930278  1
  Sb  Sb10  1  0.00000000  0.00000000  0.00000000  1
  Sb  Sb11  1  0.50000000  0.00000000  0.88621000  1
  Sb  Sb12  1  0.93075380  0.01525266  0.58491564  1
  Sb  Sb13  1  0.50000000  0.50000000  1.00000000  1
  Sb  Sb14  1  0.00000000  0.50000000  0.88621000  1
  Sb  Sb15  1  0.50000000  0.50000000  0.77241000  1
  Sb  Sb16  1  0.99666576  0.49249934  0.65849077  1
  Sb  Sb17  1  0.00000000  0.66768000  1.00000000  1
  Sb  Sb18  1  0.50000000  0.66768000  0.88621000  1
  Sb  Sb19  1  0.00000000  0.66768000  0.77241000  1
  Sb  Sb20  1  0.99509379  0.63423426  0.54423966  1
  Sb  Sb21  1  0.50000000  0.16768000  1.00000000  1
  Sb  Sb22  1  0.50000000  0.83232000  1.00000000  1
  Sb  Sb23  1  0.00000000  0.83232000  0.88621000  1
  Sb  Sb24  1  0.01213635  0.82324762  0.66253350  1
  Sb  Sb25  1  0.47579497  0.80160747  0.55210479  1
  Sb  Sb26  1  0.00000000  0.33232000  1.00000000  1
  Sb  Sb27  1  0.50000000  0.33232000  0.88621000  1
  Sb  Sb28  1  0.00000000  0.33232000  0.77241000  1
  Sb  Sb29  1  0.51030706  0.33281636  0.66447482  1
  Cl  Cl30  1  0.50527719  0.51614149  0.48333698  1
  O  O31  1  0.00000000  0.82836000  0.95506000  1
  O  O32  1  0.50000000  0.82836000  0.84126000  1
  O  O33  1  0.00019600  0.84474300  0.72934800  1
  O  O34  1  0.48607762  0.81956753  0.61748418  1
  O  O35  1  0.50000000  0.82836000  0.93115000  1
  O  O36  1  0.00000000  0.82836000  0.81736000  1
  O  O37  1  0.49898380  0.81423355  0.69817370  1
  O  O38  1  0.01954049  0.81162516  0.58506597  1
  O  O39  1  0.69747000  0.32836000  1.00000000  1
  O  O40  1  0.19747000  0.32836000  0.88621000  1
  O  O41  1  0.69747000  0.32836000  0.77241000  1
  O  O42  1  0.20762676  0.35198224  0.66658702  1
  O  O43  1  0.77764711  0.32753019  0.54160917  1
  O  O44  1  0.30253000  0.32836000  1.00000000  1
  O  O45  1  0.80253000  0.32836000  0.88621000  1
  O  O46  1  0.30253000  0.32836000  0.77241000  1
  O  O47  1  0.80670801  0.34405281  0.66982969  1
  O  O48  1  0.33548312  0.33873628  0.55345686  1
  O  O49  1  0.69747000  0.67164000  0.00000000  1
  O  O50  1  0.19747000  0.67164000  0.88621000  1
  O  O51  1  0.69747000  0.67164000  0.77241000  1
  O  O52  1  0.19684891  0.65651167  0.66204270  1
  O  O53  1  0.68845971  0.65045120  0.55908955  1
  O  O54  1  0.30253000  0.67164000  1.00000000  1
  O  O55  1  0.80253000  0.67164000  0.88621000  1
  O  O56  1  0.30253000  0.67164000  0.77241000  1
  O  O57  1  0.81187124  0.66331773  0.66101620  1
  O  O58  1  0.30983220  0.62817949  0.56132853  1
  O  O59  1  0.00000000  0.17164000  0.95506000  1
  O  O60  1  0.50000000  0.17164000  0.84126000  1
  O  O61  1  0.00021600  0.15531300  0.72933600  1
  O  O62  1  0.49572852  0.17536620  0.61945819  1
  O  O63  1  0.50000000  0.17164000  0.93115000  1
  O  O64  1  0.00000000  0.17164000  0.81736000  1
  O  O65  1  0.49459225  0.16918850  0.70496614  1
  O  O66  1  0.98862972  0.20173850  0.61002677  1
  O  O67  1  0.00000000  0.50000000  0.95668000  1
  O  O68  1  0.50000000  0.50000000  0.84289000  1
  O  O69  1  0.00049200  0.50002000  0.72830400  1
  O  O70  1  0.51954320  0.49664810  0.62132678  1
  O  O71  1  0.50000000  0.50000000  0.92952000  1
  O  O72  1  0.00000000  0.50000000  0.81573000  1
  O  O73  1  0.50403150  0.50847545  0.70533262  1
  O  O74  1  0.00433466  0.48307387  0.59157612  1
  O  O75  1  0.69034000  1.00000000  0.00000000  1
  O  O76  1  0.19034000  0.00000000  0.88621000  1
  O  O77  1  0.69034000  1.00000000  0.77241000  1
  O  O78  1  0.18897424  0.98337804  0.64914876  1
  O  O79  1  0.67825532  0.03554582  0.55353212  1
  O  O80  1  0.30966000  0.00000000  0.00000000  1
  O  O81  1  0.80966000  1.00000000  0.88621000  1
  O  O82  1  0.30966000  0.00000000  0.77241000  1
  O  O83  1  0.80093029  0.96419188  0.64543441  1
  O  O84  1  0.09165900  0.10328314  0.53630528  1
