# generated using pymatgen
data_MgTiMnVZnCrFeCoCuNiSb20ClO54
_symmetry_space_group_name_H-M   'P 1'
_cell_length_a   6.70541800
_cell_length_b   9.61290000
_cell_length_c   29.53869200
_cell_angle_alpha   90.12187400
_cell_angle_beta   89.64792100
_cell_angle_gamma   89.68752900
_symmetry_Int_Tables_number   1
_chemical_formula_structural   MgTiMnVZnCrFeCoCuNiSb20ClO54
_chemical_formula_sum
'Mg1 Ti1 Mn1 V1 Zn1 Cr1 Fe1 Co1 Cu1 Ni1 Sb20 Cl1 O54'
_cell_volume   1903.95144644
_cell_formula_units_Z   1
loop_
 _symmetry_equiv_pos_site_id
 _symmetry_equiv_pos_as_xyz
  1  'x, y, z'
loop_
 _atom_site_type_symbol
 _atom_site_label
 _atom_site_symmetry_multiplicity
 _atom_site_fract_x
 _atom_site_fract_y
 _atom_site_fract_z
 _atom_site_occupancy
  Mg  Mg0  1  0.50000000  0.50000000  0.22759000  1
  Ti  Ti1  1  0.49351258  0.33408724  0.33700515  1
  Mn  Mn2  1  1.00000000  0.33232000  1.00000000  1
  V  V3  1  0.00000000  0.00000000  0.22759000  1
  Zn  Zn4  1  1.00000000  0.50000000  0.11379000  1
  Cr  Cr5  1  0.05031755  0.00116087  0.43999158  1
  Fe  Fe6  1  0.99368865  0.16479495  0.33868538  1
  Co  Co7  1  0.49051647  0.51612612  0.44449202  1
  Cu  Cu8  1  0.49237987  0.00439255  0.33834817  1
  Ni  Ni9  1  0.45916948  0.80603054  0.43822708  1
  Sb  Sb10  1  0.00000000  0.00000000  0.00000000  1
  Sb  Sb11  1  0.50000000  0.00000000  0.11379000  1
  Sb  Sb12  1  0.50000000  0.50000000  0.00000000  1
  Sb  Sb13  1  0.99648494  0.49236546  0.34175832  1
  Sb  Sb14  1  1.00000000  0.66768000  1.00000000  1
  Sb  Sb15  1  0.50000000  0.66768000  0.11379000  1
  Sb  Sb16  1  0.00000000  0.66768000  0.22759000  1
  Sb  Sb17  1  0.49494502  0.66537963  0.33844132  1
  Sb  Sb18  1  0.96463866  0.67233404  0.45535598  1
  Sb  Sb19  1  0.50000000  0.16768000  0.00000000  1
  Sb  Sb20  1  0.00000000  0.16768000  0.11379000  1
  Sb  Sb21  1  0.50000000  0.16768000  0.22759000  1
  Sb  Sb22  1  0.51193807  0.20250951  0.44771841  1
  Sb  Sb23  1  0.50000000  0.83232000  0.00000000  1
  Sb  Sb24  1  1.00000000  0.83232000  0.11379000  1
  Sb  Sb25  1  0.50000000  0.83232000  0.22759000  1
  Sb  Sb26  1  0.99016716  0.85124121  0.33952845  1
  Sb  Sb27  1  0.50000000  0.33232000  0.11379000  1
  Sb  Sb28  1  0.00000000  0.33232000  0.22759000  1
  Sb  Sb29  1  0.00018932  0.33582457  0.45603263  1
  Cl  Cl30  1  0.52751853  0.51774125  0.51790027  1
  O  O31  1  1.00000000  0.82836000  0.04494000  1
  O  O32  1  0.50000000  0.82836000  0.15874000  1
  O  O33  1  0.99980400  0.84474300  0.27065200  1
  O  O34  1  0.49048291  0.83772236  0.37708971  1
  O  O35  1  0.50000000  0.82836000  0.06885000  1
  O  O36  1  0.00000000  0.82836000  0.18264000  1
  O  O37  1  0.49590839  0.82577528  0.29354761  1
  O  O38  1  0.97956288  0.83748507  0.41012521  1
  O  O39  1  0.30253000  0.32836000  1.00000000  1
  O  O40  1  0.80253000  0.32836000  0.11379000  1
  O  O41  1  0.30253000  0.32836000  0.22759000  1
  O  O42  1  0.80050236  0.33792881  0.33917461  1
  O  O43  1  0.31060989  0.35799999  0.44786711  1
  O  O44  1  0.69747000  0.32836000  0.00000000  1
  O  O45  1  0.19747000  0.32836000  0.11379000  1
  O  O46  1  0.69747000  0.32836000  0.22759000  1
  O  O47  1  0.19050349  0.33647558  0.33821246  1
  O  O48  1  0.69178019  0.36551240  0.44164282  1
  O  O49  1  0.30253000  0.67164000  1.00000000  1
  O  O50  1  0.80253000  0.67164000  0.11379000  1
  O  O51  1  0.30253000  0.67164000  0.22759000  1
  O  O52  1  0.80814601  0.66591381  0.33801077  1
  O  O53  1  0.29111746  0.65678749  0.44813148  1
  O  O54  1  0.69747000  0.67164000  1.00000000  1
  O  O55  1  0.19747000  0.67164000  0.11379000  1
  O  O56  1  0.69747000  0.67164000  0.22759000  1
  O  O57  1  0.18016795  0.66844009  0.33850789  1
  O  O58  1  0.66484063  0.66821529  0.43770920  1
  O  O59  1  1.00000000  0.17164000  0.04494000  1
  O  O60  1  0.50000000  0.17164000  0.15874000  1
  O  O61  1  0.99978400  0.15531300  0.27066400  1
  O  O62  1  0.49467736  0.19566733  0.38119902  1
  O  O63  1  0.50000000  0.17164000  0.06885000  1
  O  O64  1  1.00000000  0.17164000  0.18264000  1
  O  O65  1  0.49495660  0.17587084  0.29425960  1
  O  O66  1  0.01219879  0.17150773  0.41156542  1
  O  O67  1  1.00000000  0.50000000  0.04332000  1
  O  O68  1  0.50000000  0.50000000  0.15711000  1
  O  O69  1  0.99950800  0.50002000  0.27169600  1
  O  O70  1  0.48067928  0.50322376  0.38034960  1
  O  O71  1  0.50000000  0.50000000  0.07048000  1
  O  O72  1  0.00000000  0.50000000  0.18427000  1
  O  O73  1  0.49835079  0.50213056  0.29635448  1
  O  O74  1  0.99707580  0.50434333  0.41072617  1
  O  O75  1  0.30966000  1.00000000  1.00000000  1
  O  O76  1  0.80966000  0.00000000  0.11379000  1
  O  O77  1  0.30966000  1.00000000  0.22759000  1
  O  O78  1  0.79698343  0.01133112  0.34081281  1
  O  O79  1  0.28897192  0.96104699  0.45125649  1
  O  O80  1  0.69034000  0.00000000  0.00000000  1
  O  O81  1  0.19034000  1.00000000  0.11379000  1
  O  O82  1  0.69034000  0.00000000  0.22759000  1
  O  O83  1  0.18741500  0.00877545  0.34266672  1
  O  O84  1  0.90041314  0.00615392  0.48260531  1
