# generated using pymatgen
data_MgTiMnVZnCrFeCoCuNiSb20ClO54
_symmetry_space_group_name_H-M   'P 1'
_cell_length_a   6.64415200
_cell_length_b   9.59750500
_cell_length_c   29.42795400
_cell_angle_alpha   89.73275700
_cell_angle_beta   89.98352000
_cell_angle_gamma   89.99951200
_symmetry_Int_Tables_number   1
_chemical_formula_structural   MgTiMnVZnCrFeCoCuNiSb20ClO54
_chemical_formula_sum
'Mg1 Ti1 Mn1 V1 Zn1 Cr1 Fe1 Co1 Cu1 Ni1 Sb20 Cl1 O54'
_cell_volume   1876.52015250
_cell_formula_units_Z   1
loop_
 _symmetry_equiv_pos_site_id
 _symmetry_equiv_pos_as_xyz
  1  'x, y, z'
loop_
 _atom_site_type_symbol
 _atom_site_label
 _atom_site_symmetry_multiplicity
 _atom_site_fract_x
 _atom_site_fract_y
 _atom_site_fract_z
 _atom_site_occupancy
  Mg  Mg0  1  0.49712939  0.19617352  0.44724186  1
  Ti  Ti1  1  0.49988299  0.03138448  0.33650848  1
  Mn  Mn2  1  0.50000000  0.16768000  0.22759000  1
  V  V3  1  0.50000000  0.16768000  0.00000000  1
  Zn  Zn4  1  0.49963397  0.33236062  0.34368674  1
  Cr  Cr5  1  0.00000000  0.66768000  0.00000000  1
  Fe  Fe6  1  0.99631281  0.34133118  0.44783965  1
  Co  Co7  1  0.49780312  0.50859283  0.45039175  1
  Cu  Cu8  1  0.00000000  0.33232000  0.00000000  1
  Ni  Ni9  1  0.00000000  0.83232000  0.11379000  1
  Sb  Sb10  1  0.00000000  0.00000000  0.00000000  1
  Sb  Sb11  1  0.50000000  1.00000000  0.11379000  1
  Sb  Sb12  1  0.00000000  0.00000000  0.22759000  1
  Sb  Sb13  1  0.99868254  0.01790357  0.46540282  1
  Sb  Sb14  1  0.50000000  0.50000000  0.00000000  1
  Sb  Sb15  1  0.00000000  0.50000000  0.11379000  1
  Sb  Sb16  1  0.50000000  0.50000000  0.22759000  1
  Sb  Sb17  1  0.99947754  0.49542263  0.34203171  1
  Sb  Sb18  1  0.50000000  0.33232000  0.11379000  1
  Sb  Sb19  1  0.00000000  0.33232000  0.22759000  1
  Sb  Sb20  1  0.50000000  0.83232000  0.00000000  1
  Sb  Sb21  1  0.50000000  0.83232000  0.22759000  1
  Sb  Sb22  1  0.99992397  0.83979433  0.34747146  1
  Sb  Sb23  1  0.49947812  0.83369653  0.44586879  1
  Sb  Sb24  1  0.00000000  0.16768000  0.11379000  1
  Sb  Sb25  1  0.99941394  0.16747150  0.34325310  1
  Sb  Sb26  1  0.50000000  0.66768000  0.11379000  1
  Sb  Sb27  1  0.00000000  0.66768000  0.22759000  1
  Sb  Sb28  1  0.49988518  0.65799443  0.34055911  1
  Sb  Sb29  1  0.99948164  0.63930516  0.46419920  1
  Cl  Cl30  1  0.49520607  0.52613693  0.52384599  1
  O  O31  1  0.00000000  0.17164000  0.04494000  1
  O  O32  1  0.50000000  0.17164000  0.15874000  1
  O  O33  1  0.00019600  0.15525700  0.27065200  1
  O  O34  1  0.49993387  0.15315571  0.38152135  1
  O  O35  1  0.50000000  0.17164000  0.06885000  1
  O  O36  1  0.00000000  0.17164000  0.18264000  1
  O  O37  1  0.50005584  0.16080349  0.29133259  1
  O  O38  1  0.99694661  0.15859556  0.41137879  1
  O  O39  1  0.69747000  0.67164000  1.00000000  1
  O  O40  1  0.19747000  0.67164000  0.11379000  1
  O  O41  1  0.69747000  0.67164000  0.22759000  1
  O  O42  1  0.19769545  0.65529812  0.33242245  1
  O  O43  1  0.68269088  0.65991373  0.44660848  1
  O  O44  1  0.30253000  0.67164000  0.00000000  1
  O  O45  1  0.80253000  0.67164000  0.11379000  1
  O  O46  1  0.30253000  0.67164000  0.22759000  1
  O  O47  1  0.80207478  0.65577107  0.33219963  1
  O  O48  1  0.31387969  0.66051088  0.44589979  1
  O  O49  1  0.69747000  0.32836000  1.00000000  1
  O  O50  1  0.19747000  0.32836000  0.11379000  1
  O  O51  1  0.69747000  0.32836000  0.22759000  1
  O  O52  1  0.19009430  0.33046054  0.33921082  1
  O  O53  1  0.70979410  0.35364531  0.45351257  1
  O  O54  1  0.30253000  0.32836000  0.00000000  1
  O  O55  1  0.80253000  0.32836000  0.11379000  1
  O  O56  1  0.30253000  0.32836000  0.22759000  1
  O  O57  1  0.80899501  0.33052719  0.33912282  1
  O  O58  1  0.28277184  0.35339683  0.45328905  1
  O  O59  1  0.00000000  0.82836000  0.04494000  1
  O  O60  1  0.50000000  0.82836000  0.15874000  1
  O  O61  1  0.00021600  0.84468700  0.27066400  1
  O  O62  1  0.50139212  0.83802753  0.37847845  1
  O  O63  1  0.50000000  0.82836000  0.06885000  1
  O  O64  1  0.00000000  0.82836000  0.18264000  1
  O  O65  1  0.49915737  0.82662658  0.29608530  1
  O  O66  1  0.99704733  0.82967483  0.43497373  1
  O  O67  1  0.00000000  0.50000000  0.04332000  1
  O  O68  1  0.50000000  0.50000000  0.15711000  1
  O  O69  1  0.00049200  0.49998000  0.27169600  1
  O  O70  1  0.50065437  0.50330183  0.38437017  1
  O  O71  1  0.50000000  0.50000000  0.07048000  1
  O  O72  1  0.00000000  0.50000000  0.18427000  1
  O  O73  1  0.50000330  0.50111147  0.29564092  1
  O  O74  1  0.99690912  0.51430633  0.40794661  1
  O  O75  1  0.69034000  0.00000000  1.00000000  1
  O  O76  1  0.19034000  1.00000000  0.11379000  1
  O  O77  1  0.69034000  0.00000000  0.22759000  1
  O  O78  1  0.20020510  0.01316328  0.33706317  1
  O  O79  1  0.68574973  0.99319376  0.45819922  1
  O  O80  1  0.30966000  1.00000000  0.00000000  1
  O  O81  1  0.80966000  0.00000000  0.11379000  1
  O  O82  1  0.30966000  1.00000000  0.22759000  1
  O  O83  1  0.79942869  0.01276929  0.33697827  1
  O  O84  1  0.31064552  0.99221353  0.45757394  1
