# generated using pymatgen
data_MgTiMnVZnCrFeCoCuNiSb20ClO54
_symmetry_space_group_name_H-M   'P 1'
_cell_length_a   6.66107500
_cell_length_b   9.72594500
_cell_length_c   29.78662800
_cell_angle_alpha   90.06241800
_cell_angle_beta   89.99070000
_cell_angle_gamma   89.99133600
_symmetry_Int_Tables_number   1
_chemical_formula_structural   MgTiMnVZnCrFeCoCuNiSb20ClO54
_chemical_formula_sum
'Mg1 Ti1 Mn1 V1 Zn1 Cr1 Fe1 Co1 Cu1 Ni1 Sb20 Cl1 O54'
_cell_volume   1929.73292193
_cell_formula_units_Z   1
loop_
 _symmetry_equiv_pos_site_id
 _symmetry_equiv_pos_as_xyz
  1  'x, y, z'
loop_
 _atom_site_type_symbol
 _atom_site_label
 _atom_site_symmetry_multiplicity
 _atom_site_fract_x
 _atom_site_fract_y
 _atom_site_fract_z
 _atom_site_occupancy
  Mg  Mg0  1  1.00000000  0.33232000  0.00000000  1
  Ti  Ti1  1  0.50000000  0.83232000  0.00000000  1
  Mn  Mn2  1  0.99858161  0.34515435  0.55884810  1
  V  V3  1  0.50000000  0.50000000  0.77241000  1
  Zn  Zn4  1  0.49996486  0.23525149  0.56177063  1
  Cr  Cr5  1  0.50027912  0.34313051  0.66322137  1
  Fe  Fe6  1  0.49869974  0.82365496  0.55541397  1
  Co  Co7  1  0.49856436  0.51828347  0.55620366  1
  Cu  Cu8  1  0.50000000  0.83232000  0.77241000  1
  Ni  Ni9  1  0.99684149  0.95974064  0.55600173  1
  Sb  Sb10  1  0.00000000  0.00000000  0.00000000  1
  Sb  Sb11  1  0.50000000  1.00000000  0.88621000  1
  Sb  Sb12  1  0.00000000  1.00000000  0.77241000  1
  Sb  Sb13  1  0.50019857  0.00091855  0.66208969  1
  Sb  Sb14  1  0.50000000  0.50000000  0.00000000  1
  Sb  Sb15  1  0.00000000  0.50000000  0.88621000  1
  Sb  Sb16  1  0.99995662  0.49609725  0.65974636  1
  Sb  Sb17  1  0.00000000  0.66768000  0.00000000  1
  Sb  Sb18  1  0.50000000  0.66768000  0.88621000  1
  Sb  Sb19  1  0.00000000  0.66768000  0.77241000  1
  Sb  Sb20  1  0.49985725  0.66497245  0.66422913  1
  Sb  Sb21  1  0.00068599  0.67048067  0.54587407  1
  Sb  Sb22  1  0.50000000  0.16768000  0.00000000  1
  Sb  Sb23  1  0.00000000  0.16768000  0.88621000  1
  Sb  Sb24  1  0.50000000  0.16768000  0.77241000  1
  Sb  Sb25  1  0.00090250  0.17059005  0.64600028  1
  Sb  Sb26  1  0.00000000  0.83232000  0.88621000  1
  Sb  Sb27  1  0.99927017  0.83119034  0.66113005  1
  Sb  Sb28  1  0.50000000  0.33232000  0.88621000  1
  Sb  Sb29  1  0.00000000  0.33232000  0.77241000  1
  Cl  Cl30  1  0.49431450  0.52875489  0.48428556  1
  O  O31  1  0.00000000  0.82836000  0.95506000  1
  O  O32  1  0.50000000  0.82836000  0.84126000  1
  O  O33  1  0.00019600  0.84474300  0.72934800  1
  O  O34  1  0.50141852  0.83149346  0.62215752  1
  O  O35  1  0.50000000  0.82836000  0.93115000  1
  O  O36  1  0.00000000  0.82836000  0.81736000  1
  O  O37  1  0.49998648  0.83630778  0.70606170  1
  O  O38  1  0.99418594  0.81004203  0.59600865  1
  O  O39  1  0.69747000  0.32836000  0.00000000  1
  O  O40  1  0.19747000  0.32836000  0.88621000  1
  O  O41  1  0.69747000  0.32836000  0.77241000  1
  O  O42  1  0.20292688  0.34651214  0.66151174  1
  O  O43  1  0.71663098  0.36506789  0.55153282  1
  O  O44  1  0.30253000  0.32836000  0.00000000  1
  O  O45  1  0.80253000  0.32836000  0.88621000  1
  O  O46  1  0.30253000  0.32836000  0.77241000  1
  O  O47  1  0.79809478  0.34569154  0.66178343  1
  O  O48  1  0.28144696  0.36482824  0.55204354  1
  O  O49  1  0.69747000  0.67164000  0.00000000  1
  O  O50  1  0.19747000  0.67164000  0.88621000  1
  O  O51  1  0.69747000  0.67164000  0.77241000  1
  O  O52  1  0.18840615  0.66546863  0.66721469  1
  O  O53  1  0.67606653  0.66899900  0.55839919  1
  O  O54  1  0.30253000  0.67164000  0.00000000  1
  O  O55  1  0.80253000  0.67164000  0.88621000  1
  O  O56  1  0.30253000  0.67164000  0.77241000  1
  O  O57  1  0.81117726  0.66523763  0.66742451  1
  O  O58  1  0.32071187  0.66853869  0.55969283  1
  O  O59  1  0.00000000  0.17164000  0.95506000  1
  O  O60  1  0.50000000  0.17164000  0.84126000  1
  O  O61  1  0.00021600  0.15531300  0.72933600  1
  O  O62  1  0.49952169  0.17192181  0.62361260  1
  O  O63  1  0.50000000  0.17164000  0.93115000  1
  O  O64  1  0.00000000  0.17164000  0.81736000  1
  O  O65  1  0.49899619  0.17022737  0.70491504  1
  O  O66  1  0.99643374  0.15909789  0.57469283  1
  O  O67  1  0.00000000  0.50000000  0.95668000  1
  O  O68  1  0.50000000  0.50000000  0.84289000  1
  O  O69  1  0.00049200  0.50002000  0.72830400  1
  O  O70  1  0.50131626  0.50119872  0.62279548  1
  O  O71  1  0.50000000  0.50000000  0.92952000  1
  O  O72  1  0.00000000  0.50000000  0.81573000  1
  O  O73  1  0.50016825  0.49539760  0.70911335  1
  O  O74  1  0.99720597  0.51561936  0.59336100  1
  O  O75  1  0.69034000  1.00000000  0.00000000  1
  O  O76  1  0.19034000  1.00000000  0.88621000  1
  O  O77  1  0.69034000  1.00000000  0.77241000  1
  O  O78  1  0.19581005  0.98621593  0.66026097  1
  O  O79  1  0.70795866  0.94421859  0.54803562  1
  O  O80  1  0.30966000  1.00000000  0.00000000  1
  O  O81  1  0.80966000  1.00000000  0.88621000  1
  O  O82  1  0.30966000  1.00000000  0.77241000  1
  O  O83  1  0.80480450  0.98783343  0.66096994  1
  O  O84  1  0.28372560  0.94055535  0.54787998  1
