# generated using pymatgen
data_MgTiMnVZnCrFeCoCuNiSb20ClO54
_symmetry_space_group_name_H-M   'P 1'
_cell_length_a   6.66402200
_cell_length_b   9.57723400
_cell_length_c   29.06354800
_cell_angle_alpha   90.03305200
_cell_angle_beta   89.97172600
_cell_angle_gamma   89.97838600
_symmetry_Int_Tables_number   1
_chemical_formula_structural   MgTiMnVZnCrFeCoCuNiSb20ClO54
_chemical_formula_sum
'Mg1 Ti1 Mn1 V1 Zn1 Cr1 Fe1 Co1 Cu1 Ni1 Sb20 Cl1 O54'
_cell_volume   1854.91919504
_cell_formula_units_Z   1
loop_
 _symmetry_equiv_pos_site_id
 _symmetry_equiv_pos_as_xyz
  1  'x, y, z'
loop_
 _atom_site_type_symbol
 _atom_site_label
 _atom_site_symmetry_multiplicity
 _atom_site_fract_x
 _atom_site_fract_y
 _atom_site_fract_z
 _atom_site_occupancy
  Mg  Mg0  1  0.99900800  0.66546800  0.44666900  1
  Ti  Ti1  1  0.50000000  0.83232000  0.00000000  1
  Mn  Mn2  1  0.00104500  0.17291500  0.33668800  1
  V  V3  1  0.50000000  0.50000000  0.22759000  1
  Zn  Zn4  1  0.00407200  0.83460300  0.33725400  1
  Cr  Cr5  1  0.49773100  0.00441300  0.34435200  1
  Fe  Fe6  1  1.00000000  0.16768000  0.11379000  1
  Co  Co7  1  0.49981600  0.49296500  0.44927900  1
  Cu  Cu8  1  1.00000000  0.83232000  0.11379000  1
  Ni  Ni9  1  0.50000000  1.00000000  0.11379000  1
  Sb  Sb10  1  0.00000000  0.00000000  0.00000000  1
  Sb  Sb11  1  0.00000000  1.00000000  0.22759000  1
  Sb  Sb12  1  0.99577000  0.00846900  0.41770800  1
  Sb  Sb13  1  0.50000000  0.50000000  0.00000000  1
  Sb  Sb14  1  1.00000000  0.50000000  0.11379000  1
  Sb  Sb15  1  0.00011900  0.49903100  0.34187600  1
  Sb  Sb16  1  0.00000000  0.33232000  0.00000000  1
  Sb  Sb17  1  0.50000000  0.33232000  0.11379000  1
  Sb  Sb18  1  1.00000000  0.33232000  0.22759000  1
  Sb  Sb19  1  0.50003100  0.32505200  0.34955100  1
  Sb  Sb20  1  0.00126600  0.34086900  0.45430400  1
  Sb  Sb21  1  0.50000000  0.83232000  0.22759000  1
  Sb  Sb22  1  0.49838400  0.80052200  0.45770000  1
  Sb  Sb23  1  0.50000000  0.16768000  0.00000000  1
  Sb  Sb24  1  0.50000000  0.16768000  0.22759000  1
  Sb  Sb25  1  0.49822900  0.17658700  0.46062200  1
  Sb  Sb26  1  1.00000000  0.66768000  0.00000000  1
  Sb  Sb27  1  0.50000000  0.66768000  0.11379000  1
  Sb  Sb28  1  1.00000000  0.66768000  0.22759000  1
  Sb  Sb29  1  0.50196000  0.66904400  0.33917900  1
  Cl  Cl30  1  0.49294000  0.44628300  0.52233300  1
  O  O31  1  0.00000000  0.17164000  0.04494000  1
  O  O32  1  0.50000000  0.17164000  0.15874000  1
  O  O33  1  0.00019600  0.15525700  0.27065200  1
  O  O34  1  0.49978100  0.14566100  0.38869300  1
  O  O35  1  0.50000000  0.17164000  0.06885000  1
  O  O36  1  0.00000000  0.17164000  0.18264000  1
  O  O37  1  0.50004800  0.15690700  0.29853900  1
  O  O38  1  0.00032200  0.20900800  0.40077800  1
  O  O39  1  0.69747000  0.67164000  0.00000000  1
  O  O40  1  0.19747000  0.67164000  0.11379000  1
  O  O41  1  0.69747000  0.67164000  0.22759000  1
  O  O42  1  0.19855400  0.65640200  0.33564000  1
  O  O43  1  0.69950300  0.64526900  0.45731800  1
  O  O44  1  0.30253000  0.67164000  0.00000000  1
  O  O45  1  0.80253000  0.67164000  0.11379000  1
  O  O46  1  0.30253000  0.67164000  0.22759000  1
  O  O47  1  0.80519200  0.65779100  0.33407400  1
  O  O48  1  0.29935700  0.64413000  0.45616000  1
  O  O49  1  0.69747000  0.32836000  0.00000000  1
  O  O50  1  0.19747000  0.32836000  0.11379000  1
  O  O51  1  0.69747000  0.32836000  0.22759000  1
  O  O52  1  0.18670100  0.33149200  0.33212800  1
  O  O53  1  0.68420700  0.34422100  0.43845600  1
  O  O54  1  0.30253000  0.32836000  0.00000000  1
  O  O55  1  0.80253000  0.32836000  0.11379000  1
  O  O56  1  0.30253000  0.32836000  0.22759000  1
  O  O57  1  0.81358400  0.33136700  0.33216300  1
  O  O58  1  0.31729100  0.34580800  0.43634400  1
  O  O59  1  1.00000000  0.82836000  0.04494000  1
  O  O60  1  0.50000000  0.82836000  0.15874000  1
  O  O61  1  0.00021600  0.84468700  0.27066400  1
  O  O62  1  0.50134700  0.83063800  0.38455900  1
  O  O63  1  0.50000000  0.82836000  0.06885000  1
  O  O64  1  0.00000000  0.82836000  0.18264000  1
  O  O65  1  0.49835200  0.84036700  0.29736300  1
  O  O66  1  0.99860000  0.81391000  0.40425000  1
  O  O67  1  0.00000000  0.50000000  0.04332000  1
  O  O68  1  0.50000000  0.50000000  0.15711000  1
  O  O69  1  0.00049200  0.49998000  0.27169600  1
  O  O70  1  0.50698300  0.51705200  0.38465300  1
  O  O71  1  0.50000000  0.50000000  0.07048000  1
  O  O72  1  1.00000000  0.50000000  0.18427000  1
  O  O73  1  0.50012300  0.50579300  0.29194600  1
  O  O74  1  0.99757900  0.49862000  0.40871200  1
  O  O75  1  0.69034000  0.00000000  0.00000000  1
  O  O76  1  0.19034000  1.00000000  0.11379000  1
  O  O77  1  0.69034000  1.00000000  0.22759000  1
  O  O78  1  0.18730700  0.02024000  0.34961100  1
  O  O79  1  0.76254600  0.02773300  0.45660800  1
  O  O80  1  0.30966000  0.00000000  0.00000000  1
  O  O81  1  0.80966000  1.00000000  0.11379000  1
  O  O82  1  0.30966000  1.00000000  0.22759000  1
  O  O83  1  0.81626200  0.02193900  0.35013000  1
  O  O84  1  0.22866900  0.02851900  0.45659300  1
