# generated using pymatgen
data_MgTiMnVZnCrFeCoCuNiSb20ClO54
_symmetry_space_group_name_H-M   'P 1'
_cell_length_a   6.65116800
_cell_length_b   9.59749900
_cell_length_c   28.64097900
_cell_angle_alpha   89.95529400
_cell_angle_beta   89.98965300
_cell_angle_gamma   89.98511400
_symmetry_Int_Tables_number   1
_chemical_formula_structural   MgTiMnVZnCrFeCoCuNiSb20ClO54
_chemical_formula_sum
'Mg1 Ti1 Mn1 V1 Zn1 Cr1 Fe1 Co1 Cu1 Ni1 Sb20 Cl1 O54'
_cell_volume   1828.28416653
_cell_formula_units_Z   1
loop_
 _symmetry_equiv_pos_site_id
 _symmetry_equiv_pos_as_xyz
  1  'x, y, z'
loop_
 _atom_site_type_symbol
 _atom_site_label
 _atom_site_symmetry_multiplicity
 _atom_site_fract_x
 _atom_site_fract_y
 _atom_site_fract_z
 _atom_site_occupancy
  Mg  Mg0  1  0.50000000  0.50000000  0.77241000  1
  Ti  Ti1  1  0.99917414  0.49484846  0.66282702  1
  Mn  Mn2  1  0.50000000  0.83232000  0.77241000  1
  V  V3  1  0.00000000  0.83232000  0.88621000  1
  Zn  Zn4  1  0.50000000  1.00000000  0.88621000  1
  Cr  Cr5  1  0.00000000  0.00000000  0.77241000  1
  Fe  Fe6  1  0.00000000  0.66768000  1.00000000  1
  Co  Co7  1  0.49990188  0.49958581  0.54702798  1
  Cu  Cu8  1  0.00000000  0.33232000  0.77241000  1
  Ni  Ni9  1  0.99944321  0.63951657  0.54953996  1
  Sb  Sb10  1  0.00000000  0.00000000  0.00000000  1
  Sb  Sb11  1  0.49944464  0.99612830  0.65384178  1
  Sb  Sb12  1  0.99863320  0.00387456  0.55704372  1
  Sb  Sb13  1  0.50000000  0.50000000  1.00000000  1
  Sb  Sb14  1  0.00000000  0.50000000  0.88621000  1
  Sb  Sb15  1  0.50000000  0.66768000  0.88621000  1
  Sb  Sb16  1  0.00000000  0.66768000  0.77241000  1
  Sb  Sb17  1  0.49937404  0.66900302  0.65965764  1
  Sb  Sb18  1  0.50000000  0.16768000  1.00000000  1
  Sb  Sb19  1  0.00000000  0.16768000  0.88621000  1
  Sb  Sb20  1  0.50000000  0.16768000  0.77241000  1
  Sb  Sb21  1  0.99986585  0.17563062  0.66288338  1
  Sb  Sb22  1  0.49895593  0.19538600  0.53246616  1
  Sb  Sb23  1  0.50000000  0.83232000  1.00000000  1
  Sb  Sb24  1  0.99949022  0.82661630  0.66005220  1
  Sb  Sb25  1  0.49932157  0.79684452  0.53192990  1
  Sb  Sb26  1  0.00000000  0.33232000  1.00000000  1
  Sb  Sb27  1  0.50000000  0.33232000  0.88621000  1
  Sb  Sb28  1  0.49931149  0.34225538  0.65074367  1
  Sb  Sb29  1  0.99992727  0.37549763  0.53954718  1
  Cl  Cl30  1  0.49999075  0.45254755  0.47203859  1
  O  O31  1  0.00000000  0.82836000  0.95506000  1
  O  O32  1  0.50000000  0.82836000  0.84126000  1
  O  O33  1  0.00019600  0.84474300  0.72934800  1
  O  O34  1  0.49889144  0.82831428  0.60988236  1
  O  O35  1  0.50000000  0.82836000  0.93115000  1
  O  O36  1  0.00000000  0.82836000  0.81736000  1
  O  O37  1  0.49898364  0.83843771  0.70163376  1
  O  O38  1  0.99756986  0.82201815  0.58929151  1
  O  O39  1  0.69747000  0.32836000  1.00000000  1
  O  O40  1  0.19747000  0.32836000  0.88621000  1
  O  O41  1  0.69747000  0.32836000  0.77241000  1
  O  O42  1  0.18728076  0.33924715  0.66270762  1
  O  O43  1  0.68603612  0.35176627  0.55753346  1
  O  O44  1  0.30253000  0.32836000  1.00000000  1
  O  O45  1  0.80253000  0.32836000  0.88621000  1
  O  O46  1  0.30253000  0.32836000  0.77241000  1
  O  O47  1  0.81151684  0.33863142  0.66320038  1
  O  O48  1  0.31276045  0.35296009  0.55764926  1
  O  O49  1  0.69747000  0.67164000  1.00000000  1
  O  O50  1  0.19747000  0.67164000  0.88621000  1
  O  O51  1  0.69747000  0.67164000  0.77241000  1
  O  O52  1  0.19254016  0.66830962  0.66110713  1
  O  O53  1  0.70523888  0.64584792  0.54064380  1
  O  O54  1  0.30253000  0.67164000  1.00000000  1
  O  O55  1  0.80253000  0.67164000  0.88621000  1
  O  O56  1  0.30253000  0.67164000  0.77241000  1
  O  O57  1  0.80603837  0.66857731  0.66136583  1
  O  O58  1  0.29403413  0.64575868  0.54068353  1
  O  O59  1  0.00000000  0.17164000  0.95506000  1
  O  O60  1  0.50000000  0.17164000  0.84126000  1
  O  O61  1  0.00021600  0.15531300  0.72933600  1
  O  O62  1  0.49725598  0.13939947  0.60444271  1
  O  O63  1  0.50000000  0.17164000  0.93115000  1
  O  O64  1  0.00000000  0.17164000  0.81736000  1
  O  O65  1  0.49808265  0.15484375  0.69790599  1
  O  O66  1  0.99826881  0.18432274  0.59095981  1
  O  O67  1  0.00000000  0.50000000  0.95668000  1
  O  O68  1  0.50000000  0.50000000  0.84289000  1
  O  O69  1  0.00049200  0.50002000  0.72830400  1
  O  O70  1  0.50039744  0.52444237  0.61112695  1
  O  O71  1  0.50000000  0.50000000  0.92952000  1
  O  O72  1  0.00000000  0.50000000  0.81573000  1
  O  O73  1  0.49960516  0.50370037  0.69962029  1
  O  O74  1  0.99831098  0.49656387  0.59656524  1
  O  O75  1  0.69034000  0.00000000  1.00000000  1
  O  O76  1  0.19034000  1.00000000  0.88621000  1
  O  O77  1  0.69034000  0.00000000  0.77241000  1
  O  O78  1  0.19108351  0.99395969  0.65272120  1
  O  O79  1  0.74239682  0.00651672  0.52823503  1
  O  O80  1  0.30966000  1.00000000  0.00000000  1
  O  O81  1  0.80966000  0.00000000  0.88621000  1
  O  O82  1  0.30966000  1.00000000  0.77241000  1
  O  O83  1  0.80748131  0.99447839  0.65284324  1
  O  O84  1  0.25429783  0.00443474  0.52795948  1
