# generated using pymatgen
data_MgTiMnVZnCrFeCoCuNiSb20ClO54
_symmetry_space_group_name_H-M   'P 1'
_cell_length_a   6.52002300
_cell_length_b   9.75391800
_cell_length_c   28.75389100
_cell_angle_alpha   90.05195700
_cell_angle_beta   89.96933200
_cell_angle_gamma   89.95267000
_symmetry_Int_Tables_number   1
_chemical_formula_structural   MgTiMnVZnCrFeCoCuNiSb20ClO54
_chemical_formula_sum
'Mg1 Ti1 Mn1 V1 Zn1 Cr1 Fe1 Co1 Cu1 Ni1 Sb20 Cl1 O54'
_cell_volume   1828.62419156
_cell_formula_units_Z   1
loop_
 _symmetry_equiv_pos_site_id
 _symmetry_equiv_pos_as_xyz
  1  'x, y, z'
loop_
 _atom_site_type_symbol
 _atom_site_label
 _atom_site_symmetry_multiplicity
 _atom_site_fract_x
 _atom_site_fract_y
 _atom_site_fract_z
 _atom_site_occupancy
  Mg  Mg0  1  1.00000000  0.66768000  0.00000000  1
  Ti  Ti1  1  0.00000000  0.50000000  0.88621000  1
  Mn  Mn2  1  0.00000000  0.16768000  0.88621000  1
  V  V3  1  0.00000000  0.33232000  0.00000000  1
  Zn  Zn4  1  0.00000000  0.83232000  0.88621000  1
  Cr  Cr5  1  0.50000000  0.83232000  0.77241000  1
  Fe  Fe6  1  0.00000000  0.00000000  0.00000000  1
  Co  Co7  1  0.50145260  0.48935898  0.55080669  1
  Cu  Cu8  1  0.00299411  0.50517674  0.66091204  1
  Ni  Ni9  1  0.00098797  0.33217097  0.56413724  1
  Sb  Sb10  1  0.50000000  1.00000000  0.88621000  1
  Sb  Sb11  1  0.00000000  1.00000000  0.77241000  1
  Sb  Sb12  1  0.50053636  0.99076253  0.65742563  1
  Sb  Sb13  1  0.00358390  0.95500731  0.53005480  1
  Sb  Sb14  1  0.50000000  0.50000000  0.00000000  1
  Sb  Sb15  1  0.50000000  0.50000000  0.77241000  1
  Sb  Sb16  1  0.50000000  0.66768000  0.88621000  1
  Sb  Sb17  1  0.00000000  0.66768000  0.77241000  1
  Sb  Sb18  1  0.50097334  0.67882296  0.65700687  1
  Sb  Sb19  1  0.00039732  0.63321467  0.54075927  1
  Sb  Sb20  1  0.50000000  0.16768000  0.00000000  1
  Sb  Sb21  1  0.50000000  0.16768000  0.77241000  1
  Sb  Sb22  1  0.00128454  0.19388276  0.64573039  1
  Sb  Sb23  1  0.51550834  0.19689997  0.53822162  1
  Sb  Sb24  1  0.50000000  0.83232000  0.00000000  1
  Sb  Sb25  1  0.00036891  0.83063068  0.65568952  1
  Sb  Sb26  1  0.50029751  0.76309988  0.49770953  1
  Sb  Sb27  1  0.50000000  0.33232000  0.88621000  1
  Sb  Sb28  1  0.00000000  0.33232000  0.77241000  1
  Sb  Sb29  1  0.50086750  0.33826744  0.64917506  1
  Cl  Cl30  1  0.50677362  0.41698540  0.47778098  1
  O  O31  1  0.00000000  0.82836000  0.95506000  1
  O  O32  1  0.50000000  0.82836000  0.84126000  1
  O  O33  1  0.00019600  0.84474300  0.72934800  1
  O  O34  1  0.50074381  0.83582825  0.61349115  1
  O  O35  1  0.50000000  0.82836000  0.93115000  1
  O  O36  1  0.00000000  0.82836000  0.81736000  1
  O  O37  1  0.50089549  0.83750956  0.70557487  1
  O  O38  1  0.99944155  0.81358835  0.58486708  1
  O  O39  1  0.69747000  0.32836000  0.00000000  1
  O  O40  1  0.19747000  0.32836000  0.88621000  1
  O  O41  1  0.69747000  0.32836000  0.77241000  1
  O  O42  1  0.20830626  0.33877351  0.66819315  1
  O  O43  1  0.70151683  0.34533126  0.56512798  1
  O  O44  1  0.30253000  0.32836000  0.00000000  1
  O  O45  1  0.80253000  0.32836000  0.88621000  1
  O  O46  1  0.30253000  0.32836000  0.77241000  1
  O  O47  1  0.79409158  0.33881384  0.66826978  1
  O  O48  1  0.30197206  0.33699008  0.56435105  1
  O  O49  1  0.69747000  0.67164000  0.00000000  1
  O  O50  1  0.19747000  0.67164000  0.88621000  1
  O  O51  1  0.69747000  0.67164000  0.77241000  1
  O  O52  1  0.19518895  0.67938780  0.66370397  1
  O  O53  1  0.67631253  0.63559191  0.54170247  1
  O  O54  1  0.30253000  0.67164000  0.00000000  1
  O  O55  1  0.80253000  0.67164000  0.88621000  1
  O  O56  1  0.30253000  0.67164000  0.77241000  1
  O  O57  1  0.80400342  0.67899438  0.66398061  1
  O  O58  1  0.31934834  0.63321264  0.54055014  1
  O  O59  1  0.00000000  0.17164000  0.95506000  1
  O  O60  1  0.50000000  0.17164000  0.84126000  1
  O  O61  1  0.00021600  0.15531300  0.72933600  1
  O  O62  1  0.50238623  0.14578013  0.61055719  1
  O  O63  1  0.50000000  0.17164000  0.93115000  1
  O  O64  1  0.00000000  0.17164000  0.81736000  1
  O  O65  1  0.50039298  0.15664653  0.70068632  1
  O  O66  1  0.96253681  0.14636011  0.54572751  1
  O  O67  1  0.00000000  0.50000000  0.95668000  1
  O  O68  1  0.50000000  0.50000000  0.84289000  1
  O  O69  1  0.00049200  0.50002000  0.72830400  1
  O  O70  1  0.49954607  0.51920591  0.61417258  1
  O  O71  1  0.50000000  0.50000000  0.92952000  1
  O  O72  1  0.00000000  0.50000000  0.81573000  1
  O  O73  1  0.50113538  0.50791783  0.69955166  1
  O  O74  1  0.00233102  0.50487086  0.59258219  1
  O  O75  1  0.69034000  0.00000000  0.00000000  1
  O  O76  1  0.19034000  1.00000000  0.88621000  1
  O  O77  1  0.69034000  1.00000000  0.77241000  1
  O  O78  1  0.19513010  0.98920141  0.65768490  1
  O  O79  1  0.71987113  0.91398000  0.50976402  1
  O  O80  1  0.30966000  0.00000000  0.00000000  1
  O  O81  1  0.80966000  1.00000000  0.88621000  1
  O  O82  1  0.30966000  1.00000000  0.77241000  1
  O  O83  1  0.80653299  0.99058189  0.65799007  1
  O  O84  1  0.29693161  0.92305965  0.51369264  1
