# generated using pymatgen
data_MgTiMnVZnCrFeCoCuNiSb20ClO54
_symmetry_space_group_name_H-M   'P 1'
_cell_length_a   6.68319600
_cell_length_b   9.54244500
_cell_length_c   29.47626300
_cell_angle_alpha   90.07586600
_cell_angle_beta   89.99413700
_cell_angle_gamma   89.99402300
_symmetry_Int_Tables_number   1
_chemical_formula_structural   MgTiMnVZnCrFeCoCuNiSb20ClO54
_chemical_formula_sum
'Mg1 Ti1 Mn1 V1 Zn1 Cr1 Fe1 Co1 Cu1 Ni1 Sb20 Cl1 O54'
_cell_volume   1879.81842033
_cell_formula_units_Z   1
loop_
 _symmetry_equiv_pos_site_id
 _symmetry_equiv_pos_as_xyz
  1  'x, y, z'
loop_
 _atom_site_type_symbol
 _atom_site_label
 _atom_site_symmetry_multiplicity
 _atom_site_fract_x
 _atom_site_fract_y
 _atom_site_fract_z
 _atom_site_occupancy
  Mg  Mg0  1  0.00000000  0.00000000  0.22759000  1
  Ti  Ti1  1  1.00000000  0.66768000  0.00000000  1
  Mn  Mn2  1  0.99880900  0.33704600  0.44176100  1
  V  V3  1  0.50058500  0.99837400  0.34067900  1
  Zn  Zn4  1  0.50000000  0.83232000  1.00000000  1
  Cr  Cr5  1  0.50031500  0.82518400  0.44290600  1
  Fe  Fe6  1  0.50000000  0.50000000  1.00000000  1
  Co  Co7  1  0.49833900  0.51024900  0.44821100  1
  Cu  Cu8  1  0.50000000  0.50000000  0.22759000  1
  Ni  Ni9  1  0.00000000  0.33232000  0.22759000  1
  Sb  Sb10  1  0.00000000  0.00000000  0.00000000  1
  Sb  Sb11  1  0.50000000  0.00000000  0.11379000  1
  Sb  Sb12  1  0.99900500  0.00438700  0.45499100  1
  Sb  Sb13  1  0.00000000  0.50000000  0.11379000  1
  Sb  Sb14  1  0.99993100  0.50174400  0.33922100  1
  Sb  Sb15  1  1.00000000  0.33232000  0.00000000  1
  Sb  Sb16  1  0.50000000  0.33232000  0.11379000  1
  Sb  Sb17  1  0.50037700  0.32974700  0.34071600  1
  Sb  Sb18  1  1.00000000  0.83232000  0.11379000  1
  Sb  Sb19  1  0.50000000  0.83232000  0.22759000  1
  Sb  Sb20  1  0.00007100  0.84073500  0.33791500  1
  Sb  Sb21  1  0.50000000  0.16768000  1.00000000  1
  Sb  Sb22  1  0.00000000  0.16768000  0.11379000  1
  Sb  Sb23  1  0.50000000  0.16768000  0.22759000  1
  Sb  Sb24  1  0.00061400  0.16054400  0.33529100  1
  Sb  Sb25  1  0.49828900  0.19328600  0.45510200  1
  Sb  Sb26  1  0.50000000  0.66768000  0.11379000  1
  Sb  Sb27  1  0.00000000  0.66768000  0.22759000  1
  Sb  Sb28  1  0.49994800  0.66649000  0.34024800  1
  Sb  Sb29  1  0.00187900  0.67050700  0.45527700  1
  Cl  Cl30  1  0.48919300  0.51349400  0.52148900  1
  O  O31  1  0.00000000  0.17164000  0.04494000  1
  O  O32  1  0.50000000  0.17164000  0.15874000  1
  O  O33  1  0.00019600  0.15525700  0.27065200  1
  O  O34  1  0.50042800  0.16311500  0.38523200  1
  O  O35  1  0.50000000  0.17164000  0.06885000  1
  O  O36  1  0.00000000  0.17164000  0.18264000  1
  O  O37  1  0.50021900  0.15788300  0.29889400  1
  O  O38  1  0.99976400  0.15637900  0.40537400  1
  O  O39  1  0.69747000  0.67164000  1.00000000  1
  O  O40  1  0.19747000  0.67164000  0.11379000  1
  O  O41  1  0.69747000  0.67164000  0.22759000  1
  O  O42  1  0.19416500  0.67842300  0.33890900  1
  O  O43  1  0.67713700  0.66569000  0.44541600  1
  O  O44  1  0.30253000  0.67164000  1.00000000  1
  O  O45  1  0.80253000  0.67164000  0.11379000  1
  O  O46  1  0.30253000  0.67164000  0.22759000  1
  O  O47  1  0.80582100  0.67839200  0.33864800  1
  O  O48  1  0.31998100  0.66450400  0.44284200  1
  O  O49  1  0.69747000  0.32836000  1.00000000  1
  O  O50  1  0.19747000  0.32836000  0.11379000  1
  O  O51  1  0.69747000  0.32836000  0.22759000  1
  O  O52  1  0.19410800  0.32549500  0.34228400  1
  O  O53  1  0.70501600  0.34846600  0.44897100  1
  O  O54  1  0.30253000  0.32836000  1.00000000  1
  O  O55  1  0.80253000  0.32836000  0.11379000  1
  O  O56  1  0.30253000  0.32836000  0.22759000  1
  O  O57  1  0.80664200  0.32527500  0.34223700  1
  O  O58  1  0.29345900  0.34990700  0.44766400  1
  O  O59  1  0.00000000  0.82836000  0.04494000  1
  O  O60  1  0.50000000  0.82836000  0.15874000  1
  O  O61  1  0.00021600  0.84468700  0.27066400  1
  O  O62  1  0.50185000  0.84157000  0.38123700  1
  O  O63  1  0.50000000  0.82836000  0.06885000  1
  O  O64  1  0.00000000  0.82836000  0.18264000  1
  O  O65  1  0.49985600  0.83562900  0.29665500  1
  O  O66  1  0.99918700  0.83497300  0.40763100  1
  O  O67  1  0.00000000  0.50000000  0.04332000  1
  O  O68  1  0.50000000  0.50000000  0.15711000  1
  O  O69  1  0.00049200  0.49998000  0.27169600  1
  O  O70  1  0.50408600  0.49958200  0.38402300  1
  O  O71  1  0.50000000  0.50000000  0.07048000  1
  O  O72  1  0.00000000  0.50000000  0.18427000  1
  O  O73  1  0.49959800  0.49884000  0.29794300  1
  O  O74  1  0.99649700  0.51414000  0.40981700  1
  O  O75  1  0.69034000  1.00000000  1.00000000  1
  O  O76  1  0.19034000  0.00000000  0.11379000  1
  O  O77  1  0.69034000  0.00000000  0.22759000  1
  O  O78  1  0.20134900  0.99813800  0.34127200  1
  O  O79  1  0.69362300  0.95388000  0.45510400  1
  O  O80  1  0.30966000  1.00000000  1.00000000  1
  O  O81  1  0.80966000  0.00000000  0.11379000  1
  O  O82  1  0.30966000  0.00000000  0.22759000  1
  O  O83  1  0.79951500  0.99826400  0.34108000  1
  O  O84  1  0.30557100  0.95133600  0.45525400  1
