# generated using pymatgen
data_MgTiMnVZnCrFeCoCuNiSb20ClO54
_symmetry_space_group_name_H-M   'P 1'
_cell_length_a   6.68947000
_cell_length_b   9.66476800
_cell_length_c   29.17266900
_cell_angle_alpha   89.85715100
_cell_angle_beta   89.94549500
_cell_angle_gamma   90.50123900
_symmetry_Int_Tables_number   1
_chemical_formula_structural   MgTiMnVZnCrFeCoCuNiSb20ClO54
_chemical_formula_sum
'Mg1 Ti1 Mn1 V1 Zn1 Cr1 Fe1 Co1 Cu1 Ni1 Sb20 Cl1 O54'
_cell_volume   1885.99759163
_cell_formula_units_Z   1
loop_
 _symmetry_equiv_pos_site_id
 _symmetry_equiv_pos_as_xyz
  1  'x, y, z'
loop_
 _atom_site_type_symbol
 _atom_site_label
 _atom_site_symmetry_multiplicity
 _atom_site_fract_x
 _atom_site_fract_y
 _atom_site_fract_z
 _atom_site_occupancy
  Mg  Mg0  1  1.00000000  0.33232000  0.00000000  1
  Ti  Ti1  1  0.03211093  0.98896835  0.43969176  1
  Mn  Mn2  1  0.01539364  0.64912604  0.43193900  1
  V  V3  1  0.01557577  0.82501471  0.33926083  1
  Zn  Zn4  1  1.00000000  0.50000000  0.11379000  1
  Cr  Cr5  1  0.50000000  0.33232000  0.11379000  1
  Fe  Fe6  1  0.50000000  0.16768000  0.00000000  1
  Co  Co7  1  0.46929747  0.48787859  0.45438643  1
  Cu  Cu8  1  0.00000000  0.33232000  0.22759000  1
  Ni  Ni9  1  0.43120757  0.19664752  0.45211842  1
  Sb  Sb10  1  0.00000000  0.00000000  0.00000000  1
  Sb  Sb11  1  0.50000000  0.00000000  0.11379000  1
  Sb  Sb12  1  0.00000000  0.00000000  0.22759000  1
  Sb  Sb13  1  0.50453930  0.99586139  0.34477397  1
  Sb  Sb14  1  0.50000000  0.50000000  0.00000000  1
  Sb  Sb15  1  0.50000000  0.50000000  0.22759000  1
  Sb  Sb16  1  0.03694429  0.50246347  0.33928665  1
  Sb  Sb17  1  0.00000000  0.66768000  0.00000000  1
  Sb  Sb18  1  0.50000000  0.66768000  0.11379000  1
  Sb  Sb19  1  0.00000000  0.66768000  0.22759000  1
  Sb  Sb20  1  0.52517069  0.66512499  0.36905302  1
  Sb  Sb21  1  0.00000000  0.16768000  0.11379000  1
  Sb  Sb22  1  0.50000000  0.16768000  0.22759000  1
  Sb  Sb23  1  0.99633733  0.15844408  0.33923310  1
  Sb  Sb24  1  0.50000000  0.83232000  0.00000000  1
  Sb  Sb25  1  1.00000000  0.83232000  0.11379000  1
  Sb  Sb26  1  0.50000000  0.83232000  0.22759000  1
  Sb  Sb27  1  0.55814822  0.82143471  0.46985222  1
  Sb  Sb28  1  0.50980555  0.32528945  0.34170177  1
  Sb  Sb29  1  0.94760619  0.31226659  0.46471150  1
  Cl  Cl30  1  0.50709185  0.56836548  0.52414199  1
  O  O31  1  0.00000000  0.82836000  0.04494000  1
  O  O32  1  0.50000000  0.82836000  0.15874000  1
  O  O33  1  0.99980400  0.84474300  0.27065200  1
  O  O34  1  0.52122339  0.87533131  0.39907169  1
  O  O35  1  0.50000000  0.82836000  0.06885000  1
  O  O36  1  0.00000000  0.82836000  0.18264000  1
  O  O37  1  0.51137294  0.84923803  0.29760169  1
  O  O38  1  0.03773732  0.82800635  0.40449457  1
  O  O39  1  0.30253000  0.32836000  0.00000000  1
  O  O40  1  0.80253000  0.32836000  0.11379000  1
  O  O41  1  0.30253000  0.32836000  0.22759000  1
  O  O42  1  0.81612034  0.32646599  0.33890222  1
  O  O43  1  0.27927839  0.35244317  0.46564470  1
  O  O44  1  0.69747000  0.32836000  0.00000000  1
  O  O45  1  0.19747000  0.32836000  0.11379000  1
  O  O46  1  0.69747000  0.32836000  0.22759000  1
  O  O47  1  0.20451299  0.30652907  0.33771625  1
  O  O48  1  0.64475293  0.33333333  0.46369590  1
  O  O49  1  0.30253000  0.67164000  0.00000000  1
  O  O50  1  0.80253000  0.67164000  0.11379000  1
  O  O51  1  0.30253000  0.67164000  0.22759000  1
  O  O52  1  0.83058495  0.68486113  0.34207861  1
  O  O53  1  0.29214707  0.64121083  0.43901215  1
  O  O54  1  0.69747000  0.67164000  0.00000000  1
  O  O55  1  0.19747000  0.67164000  0.11379000  1
  O  O56  1  0.69747000  0.67164000  0.22759000  1
  O  O57  1  0.20532945  0.71367479  0.33139188  1
  O  O58  1  0.69578448  0.65860447  0.43629150  1
  O  O59  1  1.00000000  0.17164000  0.04494000  1
  O  O60  1  0.50000000  0.17164000  0.15874000  1
  O  O61  1  0.99978400  0.15531300  0.27066400  1
  O  O62  1  0.50860387  0.16295938  0.38615830  1
  O  O63  1  0.50000000  0.17164000  0.06885000  1
  O  O64  1  1.00000000  0.17164000  0.18264000  1
  O  O65  1  0.51385016  0.15719018  0.29802522  1
  O  O66  1  0.97017752  0.16182914  0.40933235  1
  O  O67  1  1.00000000  0.50000000  0.04332000  1
  O  O68  1  0.50000000  0.50000000  0.15711000  1
  O  O69  1  0.99950800  0.50002000  0.27169600  1
  O  O70  1  0.47875239  0.45794583  0.39116622  1
  O  O71  1  0.50000000  0.50000000  0.07048000  1
  O  O72  1  0.00000000  0.50000000  0.18427000  1
  O  O73  1  0.49726153  0.48817912  0.29989370  1
  O  O74  1  0.96111243  0.46711369  0.42126039  1
  O  O75  1  0.30966000  0.00000000  0.00000000  1
  O  O76  1  0.80966000  0.00000000  0.11379000  1
  O  O77  1  0.30966000  0.00000000  0.22759000  1
  O  O78  1  0.81154524  0.99385872  0.34113872  1
  O  O79  1  0.26622573  0.03058486  0.46371978  1
  O  O80  1  0.69034000  0.00000000  0.00000000  1
  O  O81  1  0.19034000  0.00000000  0.11379000  1
  O  O82  1  0.69034000  0.00000000  0.22759000  1
  O  O83  1  0.19663561  0.00205529  0.34338289  1
  O  O84  1  0.82690091  0.93000223  0.47606155  1
