# generated using pymatgen
data_MgTiMnVZnCrFeCoCuNiSb20ClO54
_symmetry_space_group_name_H-M   'P 1'
_cell_length_a   6.73038100
_cell_length_b   9.69440200
_cell_length_c   29.83173700
_cell_angle_alpha   89.92937700
_cell_angle_beta   89.79246600
_cell_angle_gamma   89.98452800
_symmetry_Int_Tables_number   1
_chemical_formula_structural   MgTiMnVZnCrFeCoCuNiSb20ClO54
_chemical_formula_sum
'Mg1 Ti1 Mn1 V1 Zn1 Cr1 Fe1 Co1 Cu1 Ni1 Sb20 Cl1 O54'
_cell_volume   1946.41759584
_cell_formula_units_Z   1
loop_
 _symmetry_equiv_pos_site_id
 _symmetry_equiv_pos_as_xyz
  1  'x, y, z'
loop_
 _atom_site_type_symbol
 _atom_site_label
 _atom_site_symmetry_multiplicity
 _atom_site_fract_x
 _atom_site_fract_y
 _atom_site_fract_z
 _atom_site_occupancy
  Mg  Mg0  1  0.50000000  0.16768000  0.00000000  1
  Ti  Ti1  1  0.96672072  0.51242856  0.33960135  1
  Mn  Mn2  1  0.09456540  0.33270781  0.41277797  1
  V  V3  1  0.50000000  1.00000000  0.11379000  1
  Zn  Zn4  1  0.99647716  0.65686855  0.43957609  1
  Cr  Cr5  1  0.51694377  0.18075751  0.44196090  1
  Fe  Fe6  1  0.99530389  0.16443150  0.33710529  1
  Co  Co7  1  0.49657951  0.48628389  0.44634315  1
  Cu  Cu8  1  0.48411269  0.66174584  0.34382484  1
  Ni  Ni9  1  1.00000000  0.66768000  0.00000000  1
  Sb  Sb10  1  0.00000000  0.00000000  0.00000000  1
  Sb  Sb11  1  0.00000000  1.00000000  0.22759000  1
  Sb  Sb12  1  0.50075688  0.98654991  0.34098001  1
  Sb  Sb13  1  0.98968262  0.01219494  0.45216794  1
  Sb  Sb14  1  0.50000000  0.50000000  0.00000000  1
  Sb  Sb15  1  1.00000000  0.50000000  0.11379000  1
  Sb  Sb16  1  0.50000000  0.50000000  0.22759000  1
  Sb  Sb17  1  0.50000000  0.66768000  0.11379000  1
  Sb  Sb18  1  1.00000000  0.66768000  0.22759000  1
  Sb  Sb19  1  0.00000000  0.16768000  0.11379000  1
  Sb  Sb20  1  0.50000000  0.16768000  0.22759000  1
  Sb  Sb21  1  0.50000000  0.83232000  0.00000000  1
  Sb  Sb22  1  1.00000000  0.83232000  0.11379000  1
  Sb  Sb23  1  0.50000000  0.83232000  0.22759000  1
  Sb  Sb24  1  0.00484828  0.83123404  0.34204781  1
  Sb  Sb25  1  0.49286322  0.79102482  0.45366573  1
  Sb  Sb26  1  0.00000000  0.33232000  0.00000000  1
  Sb  Sb27  1  0.50000000  0.33232000  0.11379000  1
  Sb  Sb28  1  0.00000000  0.33232000  0.22759000  1
  Sb  Sb29  1  0.49816727  0.34244451  0.34024468  1
  Cl  Cl30  1  0.48228079  0.49718285  0.51904639  1
  O  O31  1  1.00000000  0.82836000  0.04494000  1
  O  O32  1  0.50000000  0.82836000  0.15874000  1
  O  O33  1  0.99980400  0.84474300  0.27065200  1
  O  O34  1  0.48724978  0.83615477  0.38584674  1
  O  O35  1  0.50000000  0.82836000  0.06885000  1
  O  O36  1  1.00000000  0.82836000  0.18264000  1
  O  O37  1  0.50030965  0.83292571  0.29477964  1
  O  O38  1  0.00450302  0.84507763  0.41006675  1
  O  O39  1  0.30253000  0.32836000  0.00000000  1
  O  O40  1  0.80253000  0.32836000  0.11379000  1
  O  O41  1  0.30253000  0.32836000  0.22759000  1
  O  O42  1  0.80327615  0.33463925  0.33578876  1
  O  O43  1  0.31958976  0.34357827  0.44341957  1
  O  O44  1  0.69747000  0.32836000  0.00000000  1
  O  O45  1  0.19747000  0.32836000  0.11379000  1
  O  O46  1  0.69747000  0.32836000  0.22759000  1
  O  O47  1  0.19167665  0.33873110  0.34255405  1
  O  O48  1  0.66243456  0.32787422  0.44687020  1
  O  O49  1  0.30253000  0.67164000  0.00000000  1
  O  O50  1  0.80253000  0.67164000  0.11379000  1
  O  O51  1  0.30253000  0.67164000  0.22759000  1
  O  O52  1  0.80519135  0.67167343  0.33790240  1
  O  O53  1  0.29737307  0.63964454  0.44374973  1
  O  O54  1  0.69747000  0.67164000  0.00000000  1
  O  O55  1  0.19747000  0.67164000  0.11379000  1
  O  O56  1  0.69747000  0.67164000  0.22759000  1
  O  O57  1  0.17934184  0.66511790  0.33717021  1
  O  O58  1  0.69832840  0.64518461  0.44771643  1
  O  O59  1  0.00000000  0.17164000  0.04494000  1
  O  O60  1  0.50000000  0.17164000  0.15874000  1
  O  O61  1  0.99978400  0.15531300  0.27066400  1
  O  O62  1  0.48850300  0.16334480  0.38039878  1
  O  O63  1  0.50000000  0.17164000  0.06885000  1
  O  O64  1  0.00000000  0.17164000  0.18264000  1
  O  O65  1  0.49795308  0.16375389  0.29679051  1
  O  O66  1  0.03145968  0.14909736  0.40399258  1
  O  O67  1  1.00000000  0.50000000  0.04332000  1
  O  O68  1  0.50000000  0.50000000  0.15711000  1
  O  O69  1  0.99950800  0.50002000  0.27169600  1
  O  O70  1  0.52069594  0.49465130  0.38298832  1
  O  O71  1  0.50000000  0.50000000  0.07048000  1
  O  O72  1  1.00000000  0.50000000  0.18427000  1
  O  O73  1  0.49457074  0.49594380  0.29463200  1
  O  O74  1  0.98765329  0.49949721  0.40124453  1
  O  O75  1  0.30966000  0.00000000  1.00000000  1
  O  O76  1  0.80966000  1.00000000  0.11379000  1
  O  O77  1  0.30966000  0.00000000  0.22759000  1
  O  O78  1  0.80675100  0.99358759  0.33891158  1
  O  O79  1  0.33584270  0.09453286  0.46727005  1
  O  O80  1  0.69034000  1.00000000  0.00000000  1
  O  O81  1  0.19034000  0.00000000  0.11379000  1
  O  O82  1  0.69034000  1.00000000  0.22759000  1
  O  O83  1  0.19656565  0.99337998  0.33642363  1
  O  O84  1  0.69879523  0.04324672  0.44487506  1
