# generated using pymatgen
data_MgTiMnVZnCrFeCoCuNiSb20ClO54
_symmetry_space_group_name_H-M   'P 1'
_cell_length_a   6.66750500
_cell_length_b   9.45349200
_cell_length_c   29.56867100
_cell_angle_alpha   90.04995700
_cell_angle_beta   89.99567700
_cell_angle_gamma   89.99870200
_symmetry_Int_Tables_number   1
_chemical_formula_structural   MgTiMnVZnCrFeCoCuNiSb20ClO54
_chemical_formula_sum
'Mg1 Ti1 Mn1 V1 Zn1 Cr1 Fe1 Co1 Cu1 Ni1 Sb20 Cl1 O54'
_cell_volume   1863.74825440
_cell_formula_units_Z   1
loop_
 _symmetry_equiv_pos_site_id
 _symmetry_equiv_pos_as_xyz
  1  'x, y, z'
loop_
 _atom_site_type_symbol
 _atom_site_label
 _atom_site_symmetry_multiplicity
 _atom_site_fract_x
 _atom_site_fract_y
 _atom_site_fract_z
 _atom_site_occupancy
  Mg  Mg0  1  0.99993678  0.17482149  0.34163090  1
  Ti  Ti1  1  0.50000000  0.83232000  0.22759000  1
  Mn  Mn2  1  0.50000000  1.00000000  0.11379000  1
  V  V3  1  0.49885799  0.66054388  0.33868703  1
  Zn  Zn4  1  0.50000000  0.50000000  0.22759000  1
  Cr  Cr5  1  0.99971678  0.49926090  0.33918967  1
  Fe  Fe6  1  0.50000000  0.66768000  0.11379000  1
  Co  Co7  1  0.50154786  0.50231435  0.44496141  1
  Cu  Cu8  1  0.50116231  0.17970086  0.44669630  1
  Ni  Ni9  1  0.50000000  0.16768000  1.00000000  1
  Sb  Sb10  1  0.00000000  0.00000000  0.00000000  1
  Sb  Sb11  1  0.00000000  1.00000000  0.22759000  1
  Sb  Sb12  1  0.49935758  0.99273907  0.33952913  1
  Sb  Sb13  1  0.00096638  0.00704735  0.45711735  1
  Sb  Sb14  1  0.50000000  0.50000000  1.00000000  1
  Sb  Sb15  1  1.00000000  0.50000000  0.11379000  1
  Sb  Sb16  1  0.00000000  0.66768000  0.00000000  1
  Sb  Sb17  1  0.00000000  0.66768000  0.22759000  1
  Sb  Sb18  1  0.00031867  0.65865460  0.45533908  1
  Sb  Sb19  1  1.00000000  0.16768000  0.11379000  1
  Sb  Sb20  1  0.50000000  0.16768000  0.22759000  1
  Sb  Sb21  1  0.50000000  0.83232000  1.00000000  1
  Sb  Sb22  1  1.00000000  0.83232000  0.11379000  1
  Sb  Sb23  1  0.99911314  0.83076270  0.34212101  1
  Sb  Sb24  1  0.50118102  0.83321397  0.45129941  1
  Sb  Sb25  1  1.00000000  0.33232000  0.00000000  1
  Sb  Sb26  1  0.50000000  0.33232000  0.11379000  1
  Sb  Sb27  1  0.00000000  0.33232000  0.22759000  1
  Sb  Sb28  1  0.49978762  0.34315163  0.34120140  1
  Sb  Sb29  1  0.00083348  0.34135536  0.45047150  1
  Cl  Cl30  1  0.50745962  0.50280575  0.51798879  1
  O  O31  1  0.00000000  0.82836000  0.04494000  1
  O  O32  1  0.50000000  0.82836000  0.15874000  1
  O  O33  1  0.99980400  0.84474300  0.27065200  1
  O  O34  1  0.49937592  0.82665218  0.38154035  1
  O  O35  1  0.50000000  0.82836000  0.06885000  1
  O  O36  1  0.00000000  0.82836000  0.18264000  1
  O  O37  1  0.49994467  0.83165681  0.29502618  1
  O  O38  1  0.00092364  0.83327242  0.41142126  1
  O  O39  1  0.30253000  0.32836000  0.00000000  1
  O  O40  1  0.80253000  0.32836000  0.11379000  1
  O  O41  1  0.30253000  0.32836000  0.22759000  1
  O  O42  1  0.80327468  0.34343310  0.33800806  1
  O  O43  1  0.31905493  0.34441992  0.44282630  1
  O  O44  1  0.69747000  0.32836000  1.00000000  1
  O  O45  1  0.19747000  0.32836000  0.11379000  1
  O  O46  1  0.69747000  0.32836000  0.22759000  1
  O  O47  1  0.19629887  0.34358962  0.33804617  1
  O  O48  1  0.68329169  0.34433288  0.44210193  1
  O  O49  1  0.30253000  0.67164000  0.00000000  1
  O  O50  1  0.80253000  0.67164000  0.11379000  1
  O  O51  1  0.30253000  0.67164000  0.22759000  1
  O  O52  1  0.80339467  0.66841534  0.33790079  1
  O  O53  1  0.31219468  0.65574941  0.44344075  1
  O  O54  1  0.69747000  0.67164000  1.00000000  1
  O  O55  1  0.19747000  0.67164000  0.11379000  1
  O  O56  1  0.69747000  0.67164000  0.22759000  1
  O  O57  1  0.19622140  0.66874273  0.33780420  1
  O  O58  1  0.68964497  0.65587914  0.44256418  1
  O  O59  1  0.00000000  0.17164000  0.04494000  1
  O  O60  1  0.50000000  0.17164000  0.15874000  1
  O  O61  1  0.99978400  0.15531300  0.27066400  1
  O  O62  1  0.49883851  0.16411834  0.37782439  1
  O  O63  1  0.50000000  0.17164000  0.06885000  1
  O  O64  1  0.00000000  0.17164000  0.18264000  1
  O  O65  1  0.49955616  0.16347871  0.29444205  1
  O  O66  1  0.00171775  0.16660341  0.41183114  1
  O  O67  1  0.00000000  0.50000000  0.04332000  1
  O  O68  1  0.50000000  0.50000000  0.15711000  1
  O  O69  1  0.99950800  0.50002000  0.27169600  1
  O  O70  1  0.49903632  0.51637949  0.38115924  1
  O  O71  1  0.50000000  0.50000000  0.07048000  1
  O  O72  1  1.00000000  0.50000000  0.18427000  1
  O  O73  1  0.49957485  0.51248155  0.29764853  1
  O  O74  1  0.00095445  0.50658104  0.40582668  1
  O  O75  1  0.30966000  0.00000000  0.00000000  1
  O  O76  1  0.80966000  1.00000000  0.11379000  1
  O  O77  1  0.30966000  0.00000000  0.22759000  1
  O  O78  1  0.80501414  0.99286761  0.33966358  1
  O  O79  1  0.31172632  0.00798678  0.44792755  1
  O  O80  1  0.69034000  1.00000000  1.00000000  1
  O  O81  1  0.19034000  0.00000000  0.11379000  1
  O  O82  1  0.69034000  1.00000000  0.22759000  1
  O  O83  1  0.19367326  0.99249484  0.33971883  1
  O  O84  1  0.69038751  0.00822664  0.44769959  1
