# generated using pymatgen
data_MgTiMnVZnCrFeCoCuNiSb20ClO54
_symmetry_space_group_name_H-M   'P 1'
_cell_length_a   6.70942900
_cell_length_b   9.58875600
_cell_length_c   29.35389400
_cell_angle_alpha   90.42053700
_cell_angle_beta   89.77119600
_cell_angle_gamma   89.89713700
_symmetry_Int_Tables_number   1
_chemical_formula_structural   MgTiMnVZnCrFeCoCuNiSb20ClO54
_chemical_formula_sum
'Mg1 Ti1 Mn1 V1 Zn1 Cr1 Fe1 Co1 Cu1 Ni1 Sb20 Cl1 O54'
_cell_volume   1888.41597857
_cell_formula_units_Z   1
loop_
 _symmetry_equiv_pos_site_id
 _symmetry_equiv_pos_as_xyz
  1  'x, y, z'
loop_
 _atom_site_type_symbol
 _atom_site_label
 _atom_site_symmetry_multiplicity
 _atom_site_fract_x
 _atom_site_fract_y
 _atom_site_fract_z
 _atom_site_occupancy
  Mg  Mg0  1  0.50000000  0.16768000  1.00000000  1
  Ti  Ti1  1  0.96528754  0.34110785  0.57608867  1
  Mn  Mn2  1  1.00000000  0.00000000  0.77241000  1
  V  V3  1  1.00000000  0.33232000  1.00000000  1
  Zn  Zn4  1  0.50000000  0.66768000  0.88621000  1
  Cr  Cr5  1  0.01366123  0.99811797  0.55343552  1
  Fe  Fe6  1  0.00738836  0.50917224  0.66050259  1
  Co  Co7  1  0.51933262  0.50706650  0.55162583  1
  Cu  Cu8  1  0.50236517  0.99629652  0.66828438  1
  Ni  Ni9  1  0.50000000  0.83232000  0.77241000  1
  Sb  Sb10  1  0.00000000  0.00000000  0.00000000  1
  Sb  Sb11  1  0.50000000  1.00000000  0.88621000  1
  Sb  Sb12  1  0.50000000  0.50000000  1.00000000  1
  Sb  Sb13  1  0.00000000  0.50000000  0.88621000  1
  Sb  Sb14  1  0.50000000  0.50000000  0.77241000  1
  Sb  Sb15  1  0.50000000  0.33232000  0.88621000  1
  Sb  Sb16  1  1.00000000  0.33232000  0.77241000  1
  Sb  Sb17  1  0.49757010  0.32652737  0.65216516  1
  Sb  Sb18  1  0.50000000  0.83232000  1.00000000  1
  Sb  Sb19  1  0.00000000  0.83232000  0.88621000  1
  Sb  Sb20  1  0.00405027  0.83404671  0.66120341  1
  Sb  Sb21  1  0.51585196  0.82306353  0.54957272  1
  Sb  Sb22  1  0.00000000  0.16768000  0.88621000  1
  Sb  Sb23  1  0.50000000  0.16768000  0.77241000  1
  Sb  Sb24  1  0.00114731  0.15603521  0.66155103  1
  Sb  Sb25  1  0.45658564  0.23797481  0.53355806  1
  Sb  Sb26  1  1.00000000  0.66768000  1.00000000  1
  Sb  Sb27  1  1.00000000  0.66768000  0.77241000  1
  Sb  Sb28  1  0.50545706  0.67572528  0.66128565  1
  Sb  Sb29  1  0.01918267  0.66298409  0.54140748  1
  Cl  Cl30  1  0.48624197  0.47581554  0.47778398  1
  O  O31  1  0.00000000  0.17164000  0.95506000  1
  O  O32  1  0.50000000  0.17164000  0.84126000  1
  O  O33  1  0.99980400  0.15525700  0.72934800  1
  O  O34  1  0.47931500  0.19186518  0.60126093  1
  O  O35  1  0.50000000  0.17164000  0.93115000  1
  O  O36  1  1.00000000  0.17164000  0.81736000  1
  O  O37  1  0.50540153  0.18210259  0.70139242  1
  O  O38  1  0.98335515  0.14208345  0.59228494  1
  O  O39  1  0.30253000  0.67164000  1.00000000  1
  O  O40  1  0.80253000  0.67164000  0.88621000  1
  O  O41  1  0.30253000  0.67164000  0.77241000  1
  O  O42  1  0.81261597  0.66793807  0.66134770  1
  O  O43  1  0.33489308  0.65412161  0.55245146  1
  O  O44  1  0.69747000  0.67164000  1.00000000  1
  O  O45  1  0.19747000  0.67164000  0.88621000  1
  O  O46  1  0.69747000  0.67164000  0.77241000  1
  O  O47  1  0.19808396  0.66910820  0.66216233  1
  O  O48  1  0.71402521  0.66862436  0.55183054  1
  O  O49  1  0.30253000  0.32836000  1.00000000  1
  O  O50  1  0.80253000  0.32836000  0.88621000  1
  O  O51  1  0.30253000  0.32836000  0.77241000  1
  O  O52  1  0.81382809  0.32575471  0.64796265  1
  O  O53  1  0.17800256  0.32345090  0.53861789  1
  O  O54  1  0.69747000  0.32836000  1.00000000  1
  O  O55  1  0.19747000  0.32836000  0.88621000  1
  O  O56  1  0.69747000  0.32836000  0.77241000  1
  O  O57  1  0.18574722  0.32751569  0.65271395  1
  O  O58  1  0.73152061  0.36566517  0.54836599  1
  O  O59  1  0.00000000  0.82836000  0.95506000  1
  O  O60  1  0.50000000  0.82836000  0.84126000  1
  O  O61  1  0.99978400  0.84468700  0.72933600  1
  O  O62  1  0.50747876  0.83607284  0.61714957  1
  O  O63  1  0.50000000  0.82836000  0.93115000  1
  O  O64  1  1.00000000  0.82836000  0.81736000  1
  O  O65  1  0.50305432  0.82418822  0.70683955  1
  O  O66  1  0.02305434  0.83637544  0.58685955  1
  O  O67  1  0.00000000  0.50000000  0.95668000  1
  O  O68  1  0.50000000  0.50000000  0.84289000  1
  O  O69  1  0.99950800  0.49998000  0.72830400  1
  O  O70  1  0.50338759  0.50595396  0.61594975  1
  O  O71  1  0.50000000  0.50000000  0.92952000  1
  O  O72  1  1.00000000  0.50000000  0.81573000  1
  O  O73  1  0.50312023  0.49031615  0.70140156  1
  O  O74  1  0.01324095  0.52599287  0.59283007  1
  O  O75  1  0.30966000  0.00000000  1.00000000  1
  O  O76  1  0.80966000  1.00000000  0.88621000  1
  O  O77  1  0.30966000  0.00000000  0.77241000  1
  O  O78  1  0.80445694  0.99691662  0.66025198  1
  O  O79  1  0.22984516  0.01693166  0.52838530  1
  O  O80  1  0.69034000  1.00000000  1.00000000  1
  O  O81  1  0.19034000  0.00000000  0.88621000  1
  O  O82  1  0.69034000  1.00000000  0.77241000  1
  O  O83  1  0.20023084  0.99903585  0.65957973  1
  O  O84  1  0.81827996  0.98453715  0.52162354  1
