# generated using pymatgen
data_MgTiMnVZnCrFeCoCuNiSb20ClO54
_symmetry_space_group_name_H-M   'P 1'
_cell_length_a   6.72306600
_cell_length_b   9.50998400
_cell_length_c   29.03037300
_cell_angle_alpha   90.10890400
_cell_angle_beta   89.71048900
_cell_angle_gamma   89.99741100
_symmetry_Int_Tables_number   1
_chemical_formula_structural   MgTiMnVZnCrFeCoCuNiSb20ClO54
_chemical_formula_sum
'Mg1 Ti1 Mn1 V1 Zn1 Cr1 Fe1 Co1 Cu1 Ni1 Sb20 Cl1 O54'
_cell_volume   1856.06613795
_cell_formula_units_Z   1
loop_
 _symmetry_equiv_pos_site_id
 _symmetry_equiv_pos_as_xyz
  1  'x, y, z'
loop_
 _atom_site_type_symbol
 _atom_site_label
 _atom_site_symmetry_multiplicity
 _atom_site_fract_x
 _atom_site_fract_y
 _atom_site_fract_z
 _atom_site_occupancy
  Mg  Mg0  1  0.99429983  0.50119239  0.34066924  1
  Ti  Ti1  1  0.50000000  0.16768000  0.00000000  1
  Mn  Mn2  1  0.50000000  0.83232000  0.22759000  1
  V  V3  1  1.00000000  0.33232000  0.00000000  1
  Zn  Zn4  1  0.00000000  0.66768000  0.22759000  1
  Cr  Cr5  1  0.51003516  0.98780006  0.34151587  1
  Fe  Fe6  1  0.50000000  0.66768000  0.11379000  1
  Co  Co7  1  0.49946204  0.49564869  0.44395017  1
  Cu  Cu8  1  0.00000000  0.00000000  0.22759000  1
  Ni  Ni9  1  0.49008206  0.67620138  0.33920230  1
  Sb  Sb10  1  0.00000000  0.00000000  0.00000000  1
  Sb  Sb11  1  0.50000000  1.00000000  0.11379000  1
  Sb  Sb12  1  0.01872046  0.99812216  0.42757196  1
  Sb  Sb13  1  0.50000000  0.50000000  0.00000000  1
  Sb  Sb14  1  1.00000000  0.50000000  0.11379000  1
  Sb  Sb15  1  0.50000000  0.50000000  0.22759000  1
  Sb  Sb16  1  1.00000000  0.66768000  0.00000000  1
  Sb  Sb17  1  0.00031210  0.65720739  0.45848403  1
  Sb  Sb18  1  0.00000000  0.16768000  0.11379000  1
  Sb  Sb19  1  0.50000000  0.16768000  0.22759000  1
  Sb  Sb20  1  0.98733674  0.17230921  0.33723695  1
  Sb  Sb21  1  0.50568660  0.18406754  0.45759902  1
  Sb  Sb22  1  0.50000000  0.83232000  0.00000000  1
  Sb  Sb23  1  1.00000000  0.83232000  0.11379000  1
  Sb  Sb24  1  0.98913368  0.80977570  0.33427023  1
  Sb  Sb25  1  0.50835447  0.81230292  0.45479740  1
  Sb  Sb26  1  0.50000000  0.33232000  0.11379000  1
  Sb  Sb27  1  0.00000000  0.33232000  0.22759000  1
  Sb  Sb28  1  0.49113016  0.33047150  0.34364685  1
  Sb  Sb29  1  0.99758317  0.34164513  0.45811666  1
  Cl  Cl30  1  0.51285959  0.47642684  0.51967416  1
  O  O31  1  1.00000000  0.82836000  0.04494000  1
  O  O32  1  0.50000000  0.82836000  0.15874000  1
  O  O33  1  0.99980400  0.84474300  0.27065200  1
  O  O34  1  0.49510185  0.84451411  0.38611136  1
  O  O35  1  0.50000000  0.82836000  0.06885000  1
  O  O36  1  1.00000000  0.82836000  0.18264000  1
  O  O37  1  0.48388974  0.84685988  0.29840540  1
  O  O38  1  0.99166435  0.80278738  0.40758469  1
  O  O39  1  0.30253000  0.32836000  0.00000000  1
  O  O40  1  0.80253000  0.32836000  0.11379000  1
  O  O41  1  0.30253000  0.32836000  0.22759000  1
  O  O42  1  0.79398940  0.32719947  0.33850130  1
  O  O43  1  0.31017152  0.34297550  0.44200155  1
  O  O44  1  0.69747000  0.32836000  0.00000000  1
  O  O45  1  0.19747000  0.32836000  0.11379000  1
  O  O46  1  0.69747000  0.32836000  0.22759000  1
  O  O47  1  0.18925300  0.32417195  0.33813005  1
  O  O48  1  0.68872515  0.34642550  0.43870438  1
  O  O49  1  0.30253000  0.67164000  0.00000000  1
  O  O50  1  0.80253000  0.67164000  0.11379000  1
  O  O51  1  0.30253000  0.67164000  0.22759000  1
  O  O52  1  0.78284411  0.66658969  0.33916213  1
  O  O53  1  0.31238782  0.64955273  0.44775997  1
  O  O54  1  0.69747000  0.67164000  0.00000000  1
  O  O55  1  0.19747000  0.67164000  0.11379000  1
  O  O56  1  0.69747000  0.67164000  0.22759000  1
  O  O57  1  0.19710693  0.66787499  0.33993262  1
  O  O58  1  0.68950681  0.64410349  0.44465526  1
  O  O59  1  0.00000000  0.17164000  0.04494000  1
  O  O60  1  0.50000000  0.17164000  0.15874000  1
  O  O61  1  0.99978400  0.15531300  0.27066400  1
  O  O62  1  0.49310055  0.15381637  0.38551758  1
  O  O63  1  0.50000000  0.17164000  0.06885000  1
  O  O64  1  0.00000000  0.17164000  0.18264000  1
  O  O65  1  0.49522308  0.16359944  0.29825359  1
  O  O66  1  0.99528611  0.19485244  0.40712002  1
  O  O67  1  1.00000000  0.50000000  0.04332000  1
  O  O68  1  0.50000000  0.50000000  0.15711000  1
  O  O69  1  0.99950800  0.50002000  0.27169600  1
  O  O70  1  0.48834843  0.50609407  0.38019386  1
  O  O71  1  0.50000000  0.50000000  0.07048000  1
  O  O72  1  1.00000000  0.50000000  0.18427000  1
  O  O73  1  0.49453438  0.48541824  0.29523387  1
  O  O74  1  0.00479863  0.49929669  0.41366809  1
  O  O75  1  0.30966000  1.00000000  0.00000000  1
  O  O76  1  0.80966000  1.00000000  0.11379000  1
  O  O77  1  0.30966000  1.00000000  0.22759000  1
  O  O78  1  0.79852799  0.99927283  0.34750232  1
  O  O79  1  0.25118304  0.00898467  0.46330568  1
  O  O80  1  0.69034000  0.00000000  0.00000000  1
  O  O81  1  0.19034000  1.00000000  0.11379000  1
  O  O82  1  0.69034000  0.00000000  0.22759000  1
  O  O83  1  0.16290895  0.99920392  0.35625690  1
  O  O84  1  0.77182497  0.00837421  0.45956873  1
