# generated using pymatgen
data_MgTiMnVZnCrFeCoCuNiSb20ClO54
_symmetry_space_group_name_H-M   'P 1'
_cell_length_a   6.66583900
_cell_length_b   9.64359500
_cell_length_c   28.97834300
_cell_angle_alpha   89.95336000
_cell_angle_beta   89.93219300
_cell_angle_gamma   89.99841600
_symmetry_Int_Tables_number   1
_chemical_formula_structural   MgTiMnVZnCrFeCoCuNiSb20ClO54
_chemical_formula_sum
'Mg1 Ti1 Mn1 V1 Zn1 Cr1 Fe1 Co1 Cu1 Ni1 Sb20 Cl1 O54'
_cell_volume   1862.80280617
_cell_formula_units_Z   1
loop_
 _symmetry_equiv_pos_site_id
 _symmetry_equiv_pos_as_xyz
  1  'x, y, z'
loop_
 _atom_site_type_symbol
 _atom_site_label
 _atom_site_symmetry_multiplicity
 _atom_site_fract_x
 _atom_site_fract_y
 _atom_site_fract_z
 _atom_site_occupancy
  Mg  Mg0  1  0.00101358  0.48960351  0.34086339  1
  Ti  Ti1  1  1.00000000  0.66768000  0.00000000  1
  Mn  Mn2  1  0.99924888  0.64683568  0.43439378  1
  V  V3  1  0.50000000  0.50000000  1.00000000  1
  Zn  Zn4  1  0.50000000  1.00000000  0.11379000  1
  Cr  Cr5  1  1.00000000  0.83232000  0.11379000  1
  Fe  Fe6  1  0.50000000  0.33232000  0.11379000  1
  Co  Co7  1  0.49895859  0.50158546  0.44792464  1
  Cu  Cu8  1  0.49989969  0.32527823  0.34349217  1
  Ni  Ni9  1  0.99924069  0.33763802  0.44797140  1
  Sb  Sb10  1  0.00000000  0.00000000  0.00000000  1
  Sb  Sb11  1  0.00000000  0.00000000  0.22759000  1
  Sb  Sb12  1  0.50006290  0.00546433  0.34487625  1
  Sb  Sb13  1  0.99792229  0.99416386  0.46459153  1
  Sb  Sb14  1  1.00000000  0.50000000  0.11379000  1
  Sb  Sb15  1  0.50000000  0.50000000  0.22759000  1
  Sb  Sb16  1  0.00000000  0.33232000  0.00000000  1
  Sb  Sb17  1  0.00000000  0.33232000  0.22759000  1
  Sb  Sb18  1  0.50000000  0.83232000  1.00000000  1
  Sb  Sb19  1  0.50000000  0.83232000  0.22759000  1
  Sb  Sb20  1  0.00005790  0.83079936  0.34465058  1
  Sb  Sb21  1  0.49795561  0.79332080  0.45907746  1
  Sb  Sb22  1  0.50000000  0.16768000  1.00000000  1
  Sb  Sb23  1  0.00000000  0.16768000  0.11379000  1
  Sb  Sb24  1  0.50000000  0.16768000  0.22759000  1
  Sb  Sb25  1  0.00016699  0.18074925  0.34649954  1
  Sb  Sb26  1  0.49922350  0.20068008  0.46204734  1
  Sb  Sb27  1  0.50000000  0.66768000  0.11379000  1
  Sb  Sb28  1  1.00000000  0.66768000  0.22759000  1
  Sb  Sb29  1  0.50008492  0.65332348  0.34687939  1
  Cl  Cl30  1  0.49706831  0.61249868  0.52384045  1
  O  O31  1  0.00000000  0.17164000  0.04494000  1
  O  O32  1  0.50000000  0.17164000  0.15874000  1
  O  O33  1  0.00019600  0.15525700  0.27065200  1
  O  O34  1  0.49731993  0.15034937  0.39248125  1
  O  O35  1  0.50000000  0.17164000  0.06885000  1
  O  O36  1  0.00000000  0.17164000  0.18264000  1
  O  O37  1  0.50190851  0.15672040  0.29638369  1
  O  O38  1  0.99793247  0.15311575  0.41555281  1
  O  O39  1  0.69747000  0.67164000  1.00000000  1
  O  O40  1  0.19747000  0.67164000  0.11379000  1
  O  O41  1  0.69747000  0.67164000  0.22759000  1
  O  O42  1  0.19373765  0.67368003  0.34127329  1
  O  O43  1  0.70216122  0.64597782  0.44045681  1
  O  O44  1  0.30253000  0.67164000  1.00000000  1
  O  O45  1  0.80253000  0.67164000  0.11379000  1
  O  O46  1  0.30253000  0.67164000  0.22759000  1
  O  O47  1  0.80641247  0.67337482  0.34107918  1
  O  O48  1  0.29601518  0.64595960  0.44018052  1
  O  O49  1  0.69747000  0.32836000  1.00000000  1
  O  O50  1  0.19747000  0.32836000  0.11379000  1
  O  O51  1  0.69747000  0.32836000  0.22759000  1
  O  O52  1  0.20336885  0.32251314  0.33831571  1
  O  O53  1  0.69989815  0.35457188  0.45894917  1
  O  O54  1  0.30253000  0.32836000  1.00000000  1
  O  O55  1  0.80253000  0.32836000  0.11379000  1
  O  O56  1  0.30253000  0.32836000  0.22759000  1
  O  O57  1  0.79684779  0.32299885  0.33869482  1
  O  O58  1  0.29864806  0.35477676  0.45862121  1
  O  O59  1  1.00000000  0.82836000  0.04494000  1
  O  O60  1  0.50000000  0.82836000  0.15874000  1
  O  O61  1  0.00021600  0.84468700  0.27066400  1
  O  O62  1  0.50022894  0.83674049  0.38771492  1
  O  O63  1  0.50000000  0.82836000  0.06885000  1
  O  O64  1  1.00000000  0.82836000  0.18264000  1
  O  O65  1  0.50075818  0.83457969  0.29917486  1
  O  O66  1  0.99728684  0.84159404  0.41421552  1
  O  O67  1  1.00000000  0.50000000  0.04332000  1
  O  O68  1  0.50000000  0.50000000  0.15711000  1
  O  O69  1  0.00049200  0.49998000  0.27169600  1
  O  O70  1  0.49843551  0.48306140  0.38536202  1
  O  O71  1  0.50000000  0.50000000  0.07048000  1
  O  O72  1  1.00000000  0.50000000  0.18427000  1
  O  O73  1  0.49922913  0.51121968  0.29596592  1
  O  O74  1  0.99816906  0.48505101  0.40897438  1
  O  O75  1  0.69034000  0.00000000  1.00000000  1
  O  O76  1  0.19034000  1.00000000  0.11379000  1
  O  O77  1  0.69034000  0.00000000  0.22759000  1
  O  O78  1  0.19077463  0.99936084  0.34158744  1
  O  O79  1  0.70562391  0.92985801  0.47514314  1
  O  O80  1  0.30966000  1.00000000  1.00000000  1
  O  O81  1  0.80966000  0.00000000  0.11379000  1
  O  O82  1  0.30966000  1.00000000  0.22759000  1
  O  O83  1  0.80954310  0.99965863  0.34139474  1
  O  O84  1  0.28895524  0.92844525  0.47498817  1
