# generated using pymatgen
data_MgTiMnVZnCrFeCoCuNiSb20ClO54
_symmetry_space_group_name_H-M   'P 1'
_cell_length_a   6.73267600
_cell_length_b   9.50179900
_cell_length_c   29.46802900
_cell_angle_alpha   89.99812500
_cell_angle_beta   89.96948400
_cell_angle_gamma   89.98892700
_symmetry_Int_Tables_number   1
_chemical_formula_structural   MgTiMnVZnCrFeCoCuNiSb20ClO54
_chemical_formula_sum
'Mg1 Ti1 Mn1 V1 Zn1 Cr1 Fe1 Co1 Cu1 Ni1 Sb20 Cl1 O54'
_cell_volume   1885.14418601
_cell_formula_units_Z   1
loop_
 _symmetry_equiv_pos_site_id
 _symmetry_equiv_pos_as_xyz
  1  'x, y, z'
loop_
 _atom_site_type_symbol
 _atom_site_label
 _atom_site_symmetry_multiplicity
 _atom_site_fract_x
 _atom_site_fract_y
 _atom_site_fract_z
 _atom_site_occupancy
  Mg  Mg0  1  0.50003068  0.65654658  0.34176298  1
  Ti  Ti1  1  0.00000000  0.00000000  0.00000000  1
  Mn  Mn2  1  0.00000000  1.00000000  0.22759000  1
  V  V3  1  0.50000000  0.66768000  0.11379000  1
  Zn  Zn4  1  0.50000000  0.50000000  0.00000000  1
  Cr  Cr5  1  0.00015790  0.49964824  0.33556428  1
  Fe  Fe6  1  0.49916442  0.34445809  0.33724385  1
  Co  Co7  1  0.50132628  0.48858218  0.44094052  1
  Cu  Cu8  1  0.00214863  0.01190931  0.44477974  1
  Ni  Ni9  1  0.00000000  0.66768000  0.22759000  1
  Sb  Sb10  1  0.50000000  1.00000000  0.11379000  1
  Sb  Sb11  1  0.49944963  0.99718353  0.33877793  1
  Sb  Sb12  1  0.00000000  0.50000000  0.11379000  1
  Sb  Sb13  1  0.50000000  0.50000000  0.22759000  1
  Sb  Sb14  1  0.00000000  0.66768000  0.00000000  1
  Sb  Sb15  1  0.99987071  0.66034175  0.44638584  1
  Sb  Sb16  1  0.50000000  0.16768000  0.00000000  1
  Sb  Sb17  1  0.00000000  0.16768000  0.11379000  1
  Sb  Sb18  1  0.50000000  0.16768000  0.22759000  1
  Sb  Sb19  1  0.99948243  0.17802158  0.33894783  1
  Sb  Sb20  1  0.50107467  0.16558293  0.44568219  1
  Sb  Sb21  1  0.50000000  0.83232000  0.00000000  1
  Sb  Sb22  1  0.00000000  0.83232000  0.11379000  1
  Sb  Sb23  1  0.50000000  0.83232000  0.22759000  1
  Sb  Sb24  1  0.00006644  0.81695163  0.33701936  1
  Sb  Sb25  1  0.50114261  0.80556878  0.45214083  1
  Sb  Sb26  1  0.00000000  0.33232000  1.00000000  1
  Sb  Sb27  1  0.50000000  0.33232000  0.11379000  1
  Sb  Sb28  1  0.00000000  0.33232000  0.22759000  1
  Sb  Sb29  1  0.00090134  0.33282197  0.45177976  1
  Cl  Cl30  1  0.50779338  0.52960993  0.51471379  1
  O  O31  1  0.00000000  0.82836000  0.04494000  1
  O  O32  1  0.50000000  0.82836000  0.15874000  1
  O  O33  1  0.99980400  0.84474300  0.27065200  1
  O  O34  1  0.49845513  0.84282166  0.38276753  1
  O  O35  1  0.50000000  0.82836000  0.06885000  1
  O  O36  1  0.00000000  0.82836000  0.18264000  1
  O  O37  1  0.50019147  0.83685124  0.29568463  1
  O  O38  1  0.00231212  0.83025464  0.40600850  1
  O  O39  1  0.30253000  0.32836000  0.00000000  1
  O  O40  1  0.80253000  0.32836000  0.11379000  1
  O  O41  1  0.30253000  0.32836000  0.22759000  1
  O  O42  1  0.80782116  0.33750810  0.33527967  1
  O  O43  1  0.32032979  0.33617352  0.44790646  1
  O  O44  1  0.69747000  0.32836000  0.00000000  1
  O  O45  1  0.19747000  0.32836000  0.11379000  1
  O  O46  1  0.69747000  0.32836000  0.22759000  1
  O  O47  1  0.19102445  0.33726527  0.33419046  1
  O  O48  1  0.68268161  0.33624599  0.44600461  1
  O  O49  1  0.30253000  0.67164000  0.00000000  1
  O  O50  1  0.80253000  0.67164000  0.11379000  1
  O  O51  1  0.30253000  0.67164000  0.22759000  1
  O  O52  1  0.81111699  0.65592788  0.33768377  1
  O  O53  1  0.31380263  0.64336598  0.43432224  1
  O  O54  1  0.69747000  0.67164000  0.00000000  1
  O  O55  1  0.19747000  0.67164000  0.11379000  1
  O  O56  1  0.69747000  0.67164000  0.22759000  1
  O  O57  1  0.18895644  0.65588490  0.33725009  1
  O  O58  1  0.68713237  0.64309285  0.43279757  1
  O  O59  1  0.00000000  0.17164000  0.04494000  1
  O  O60  1  0.50000000  0.17164000  0.15874000  1
  O  O61  1  0.99978400  0.15531300  0.27066400  1
  O  O62  1  0.49797876  0.16560295  0.37848232  1
  O  O63  1  0.50000000  0.17164000  0.06885000  1
  O  O64  1  0.00000000  0.17164000  0.18264000  1
  O  O65  1  0.50045573  0.16533345  0.29525161  1
  O  O66  1  0.00522547  0.17962822  0.40569366  1
  O  O67  1  0.00000000  0.50000000  0.04332000  1
  O  O68  1  0.50000000  0.50000000  0.15711000  1
  O  O69  1  0.99950800  0.50002000  0.27169600  1
  O  O70  1  0.49543926  0.47445879  0.37986750  1
  O  O71  1  0.50000000  0.50000000  0.07048000  1
  O  O72  1  0.00000000  0.50000000  0.18427000  1
  O  O73  1  0.50114811  0.49121282  0.29308211  1
  O  O74  1  0.00337885  0.48953380  0.40447099  1
  O  O75  1  0.30966000  0.00000000  0.00000000  1
  O  O76  1  0.80966000  1.00000000  0.11379000  1
  O  O77  1  0.30966000  0.00000000  0.22759000  1
  O  O78  1  0.80843169  0.00192718  0.33985763  1
  O  O79  1  0.29159304  0.02199209  0.45580342  1
  O  O80  1  0.69034000  1.00000000  0.00000000  1
  O  O81  1  0.19034000  0.00000000  0.11379000  1
  O  O82  1  0.69034000  1.00000000  0.22759000  1
  O  O83  1  0.19043393  0.00192544  0.33936937  1
  O  O84  1  0.71226859  0.02284120  0.45492906  1
