# generated using pymatgen
data_MgTiMnVZnCrFeCoCuNiSb20ClO54
_symmetry_space_group_name_H-M   'P 1'
_cell_length_a   6.60308600
_cell_length_b   9.59415100
_cell_length_c   28.94903700
_cell_angle_alpha   90.01381800
_cell_angle_beta   89.85404300
_cell_angle_gamma   89.93203200
_symmetry_Int_Tables_number   1
_chemical_formula_structural   MgTiMnVZnCrFeCoCuNiSb20ClO54
_chemical_formula_sum
'Mg1 Ti1 Mn1 V1 Zn1 Cr1 Fe1 Co1 Cu1 Ni1 Sb20 Cl1 O54'
_cell_volume   1833.94326744
_cell_formula_units_Z   1
loop_
 _symmetry_equiv_pos_site_id
 _symmetry_equiv_pos_as_xyz
  1  'x, y, z'
loop_
 _atom_site_type_symbol
 _atom_site_label
 _atom_site_symmetry_multiplicity
 _atom_site_fract_x
 _atom_site_fract_y
 _atom_site_fract_z
 _atom_site_occupancy
  Mg  Mg0  1  0.50000000  0.66768000  0.88621000  1
  Ti  Ti1  1  0.50147659  0.68939376  0.65389929  1
  Mn  Mn2  1  0.00000000  0.33232000  0.77241000  1
  V  V3  1  0.50153586  0.98808366  0.65687346  1
  Zn  Zn4  1  0.50000000  0.83232000  0.77241000  1
  Cr  Cr5  1  0.99217242  0.33652079  0.55976497  1
  Fe  Fe6  1  1.00000000  0.66768000  1.00000000  1
  Co  Co7  1  0.50473140  0.49642047  0.55228420  1
  Cu  Cu8  1  0.00000000  0.00000000  0.00000000  1
  Ni  Ni9  1  0.50000000  0.50000000  1.00000000  1
  Sb  Sb10  1  0.50000000  1.00000000  0.88621000  1
  Sb  Sb11  1  0.00000000  1.00000000  0.77241000  1
  Sb  Sb12  1  0.99913514  0.98699102  0.51686622  1
  Sb  Sb13  1  1.00000000  0.50000000  0.88621000  1
  Sb  Sb14  1  0.50000000  0.50000000  0.77241000  1
  Sb  Sb15  1  0.00156608  0.50974460  0.66067568  1
  Sb  Sb16  1  0.00000000  0.66768000  0.77241000  1
  Sb  Sb17  1  0.00761720  0.62233406  0.53253593  1
  Sb  Sb18  1  0.50000000  0.16768000  1.00000000  1
  Sb  Sb19  1  0.00000000  0.16768000  0.88621000  1
  Sb  Sb20  1  0.50000000  0.16768000  0.77241000  1
  Sb  Sb21  1  0.00034046  0.16006910  0.65707659  1
  Sb  Sb22  1  0.50136202  0.16988733  0.54334440  1
  Sb  Sb23  1  0.50000000  0.83232000  1.00000000  1
  Sb  Sb24  1  1.00000000  0.83232000  0.88621000  1
  Sb  Sb25  1  0.00402346  0.83546939  0.64455506  1
  Sb  Sb26  1  0.48435535  0.80916182  0.53355792  1
  Sb  Sb27  1  1.00000000  0.33232000  0.00000000  1
  Sb  Sb28  1  0.50000000  0.33232000  0.88621000  1
  Sb  Sb29  1  0.50244060  0.34001442  0.65914017  1
  Cl  Cl30  1  0.48804088  0.49965492  0.47703394  1
  O  O31  1  0.00000000  0.82836000  0.95506000  1
  O  O32  1  0.50000000  0.82836000  0.84126000  1
  O  O33  1  0.00019600  0.84474300  0.72934800  1
  O  O34  1  0.49621959  0.83520681  0.61061495  1
  O  O35  1  0.50000000  0.82836000  0.93115000  1
  O  O36  1  0.00000000  0.82836000  0.81736000  1
  O  O37  1  0.50338722  0.82490789  0.69825787  1
  O  O38  1  0.02349618  0.81603719  0.55882463  1
  O  O39  1  0.69747000  0.32836000  1.00000000  1
  O  O40  1  0.19747000  0.32836000  0.88621000  1
  O  O41  1  0.69747000  0.32836000  0.77241000  1
  O  O42  1  0.19773899  0.34715305  0.66311298  1
  O  O43  1  0.73286361  0.37321254  0.55232221  1
  O  O44  1  0.30253000  0.32836000  1.00000000  1
  O  O45  1  0.80253000  0.32836000  0.88621000  1
  O  O46  1  0.30253000  0.32836000  0.77241000  1
  O  O47  1  0.80785600  0.34624603  0.66415186  1
  O  O48  1  0.27733162  0.34493466  0.55480921  1
  O  O49  1  0.69747000  0.67164000  1.00000000  1
  O  O50  1  0.19747000  0.67164000  0.88621000  1
  O  O51  1  0.69747000  0.67164000  0.77241000  1
  O  O52  1  0.20168059  0.66698112  0.66098694  1
  O  O53  1  0.68743571  0.64910781  0.55119589  1
  O  O54  1  0.30253000  0.67164000  1.00000000  1
  O  O55  1  0.80253000  0.67164000  0.88621000  1
  O  O56  1  0.30253000  0.67164000  0.77241000  1
  O  O57  1  0.80229454  0.66794325  0.66092644  1
  O  O58  1  0.30945312  0.63212643  0.55723339  1
  O  O59  1  0.00000000  0.17164000  0.95506000  1
  O  O60  1  0.50000000  0.17164000  0.84126000  1
  O  O61  1  0.00021600  0.15531300  0.72933600  1
  O  O62  1  0.51101620  0.17117732  0.61543902  1
  O  O63  1  0.50000000  0.17164000  0.93115000  1
  O  O64  1  0.00000000  0.17164000  0.81736000  1
  O  O65  1  0.50037303  0.17117650  0.70188132  1
  O  O66  1  0.96300795  0.15315895  0.55687986  1
  O  O67  1  0.00000000  0.50000000  0.95668000  1
  O  O68  1  0.50000000  0.50000000  0.84289000  1
  O  O69  1  0.00049200  0.50002000  0.72830400  1
  O  O70  1  0.51140857  0.50333151  0.61842571  1
  O  O71  1  0.50000000  0.50000000  0.92952000  1
  O  O72  1  0.00000000  0.50000000  0.81573000  1
  O  O73  1  0.50190834  0.50399241  0.70399561  1
  O  O74  1  0.00205097  0.51126198  0.59350810  1
  O  O75  1  0.69034000  0.00000000  1.00000000  1
  O  O76  1  0.19034000  1.00000000  0.88621000  1
  O  O77  1  0.69034000  1.00000000  0.77241000  1
  O  O78  1  0.22914856  0.99900632  0.66379333  1
  O  O79  1  0.69437322  0.97434757  0.53780659  1
  O  O80  1  0.30966000  0.00000000  1.00000000  1
  O  O81  1  0.80966000  1.00000000  0.88621000  1
  O  O82  1  0.30966000  1.00000000  0.77241000  1
  O  O83  1  0.77526310  0.99872353  0.66359841  1
  O  O84  1  0.29401802  0.01608748  0.54687797  1
