# generated using pymatgen
data_MgTiMnVZnCrFeCoCuNiSb20ClO54
_symmetry_space_group_name_H-M   'P 1'
_cell_length_a   6.65176000
_cell_length_b   9.66391800
_cell_length_c   29.34869900
_cell_angle_alpha   89.87432300
_cell_angle_beta   89.99091500
_cell_angle_gamma   89.98863200
_symmetry_Int_Tables_number   1
_chemical_formula_structural   MgTiMnVZnCrFeCoCuNiSb20ClO54
_chemical_formula_sum
'Mg1 Ti1 Mn1 V1 Zn1 Cr1 Fe1 Co1 Cu1 Ni1 Sb20 Cl1 O54'
_cell_volume   1886.59032458
_cell_formula_units_Z   1
loop_
 _symmetry_equiv_pos_site_id
 _symmetry_equiv_pos_as_xyz
  1  'x, y, z'
loop_
 _atom_site_type_symbol
 _atom_site_label
 _atom_site_symmetry_multiplicity
 _atom_site_fract_x
 _atom_site_fract_y
 _atom_site_fract_z
 _atom_site_occupancy
  Mg  Mg0  1  0.99962965  0.17099022  0.66276080  1
  Ti  Ti1  1  0.50000000  0.16768000  0.77241000  1
  Mn  Mn2  1  0.99918528  0.64442692  0.56080861  1
  V  V3  1  0.00000000  0.00000000  0.00000000  1
  Zn  Zn4  1  0.99930735  0.34782706  0.56495454  1
  Cr  Cr5  1  0.50000000  0.00000000  0.88621000  1
  Fe  Fe6  1  0.99923020  0.47818069  0.66527015  1
  Co  Co7  1  0.49965710  0.50580317  0.55064888  1
  Cu  Cu8  1  0.50000000  0.50000000  0.77241000  1
  Ni  Ni9  1  1.00000000  0.33232000  0.77241000  1
  Sb  Sb10  1  1.00000000  1.00000000  0.77241000  1
  Sb  Sb11  1  0.49974815  0.00183782  0.65529912  1
  Sb  Sb12  1  0.99947542  0.00505806  0.55710881  1
  Sb  Sb13  1  0.50000000  0.50000000  1.00000000  1
  Sb  Sb14  1  1.00000000  0.50000000  0.88621000  1
  Sb  Sb15  1  1.00000000  0.66768000  1.00000000  1
  Sb  Sb16  1  0.50000000  0.66768000  0.88621000  1
  Sb  Sb17  1  1.00000000  0.66768000  0.77241000  1
  Sb  Sb18  1  0.49921952  0.66475603  0.65706485  1
  Sb  Sb19  1  0.50000000  0.16768000  1.00000000  1
  Sb  Sb20  1  1.00000000  0.16768000  0.88621000  1
  Sb  Sb21  1  0.49917533  0.20807896  0.53875777  1
  Sb  Sb22  1  0.50000000  0.83232000  1.00000000  1
  Sb  Sb23  1  1.00000000  0.83232000  0.88621000  1
  Sb  Sb24  1  0.50000000  0.83232000  0.77241000  1
  Sb  Sb25  1  0.99960846  0.83233097  0.65934226  1
  Sb  Sb26  1  0.49862545  0.79878294  0.53571240  1
  Sb  Sb27  1  1.00000000  0.33232000  1.00000000  1
  Sb  Sb28  1  0.50000000  0.33232000  0.88621000  1
  Sb  Sb29  1  0.49932135  0.33828212  0.66103652  1
  Cl  Cl30  1  0.49878359  0.52467067  0.47662673  1
  O  O31  1  1.00000000  0.82836000  0.95506000  1
  O  O32  1  0.50000000  0.82836000  0.84126000  1
  O  O33  1  0.00019600  0.84474300  0.72934800  1
  O  O34  1  0.49971930  0.83473923  0.61130772  1
  O  O35  1  0.50000000  0.82836000  0.93115000  1
  O  O36  1  1.00000000  0.82836000  0.81736000  1
  O  O37  1  0.49899027  0.83856473  0.70213836  1
  O  O38  1  0.99717621  0.83011681  0.59115640  1
  O  O39  1  0.69747000  0.32836000  1.00000000  1
  O  O40  1  0.19747000  0.32836000  0.88621000  1
  O  O41  1  0.69747000  0.32836000  0.77241000  1
  O  O42  1  0.20256201  0.33310881  0.66097737  1
  O  O43  1  0.69954231  0.35842858  0.54951379  1
  O  O44  1  0.30253000  0.32836000  1.00000000  1
  O  O45  1  0.80253000  0.32836000  0.88621000  1
  O  O46  1  0.30253000  0.32836000  0.77241000  1
  O  O47  1  0.79617136  0.33302074  0.66093325  1
  O  O48  1  0.29981689  0.35909705  0.55012782  1
  O  O49  1  0.69747000  0.67164000  1.00000000  1
  O  O50  1  0.19747000  0.67164000  0.88621000  1
  O  O51  1  0.69747000  0.67164000  0.77241000  1
  O  O52  1  0.19564026  0.67716875  0.66336159  1
  O  O53  1  0.70883840  0.64938217  0.55291268  1
  O  O54  1  0.30253000  0.67164000  1.00000000  1
  O  O55  1  0.80253000  0.67164000  0.88621000  1
  O  O56  1  0.30253000  0.67164000  0.77241000  1
  O  O57  1  0.80268422  0.67740169  0.66353185  1
  O  O58  1  0.29000999  0.64948826  0.55296256  1
  O  O59  1  1.00000000  0.17164000  0.95506000  1
  O  O60  1  0.50000000  0.17164000  0.84126000  1
  O  O61  1  0.00021600  0.15531300  0.72933600  1
  O  O62  1  0.49991577  0.16667952  0.61226212  1
  O  O63  1  0.50000000  0.17164000  0.93115000  1
  O  O64  1  1.00000000  0.17164000  0.81736000  1
  O  O65  1  0.49896551  0.15720360  0.70159079  1
  O  O66  1  0.00308449  0.16786846  0.59308712  1
  O  O67  1  1.00000000  0.50000000  0.95668000  1
  O  O68  1  0.50000000  0.50000000  0.84289000  1
  O  O69  1  0.00049200  0.50002000  0.72830400  1
  O  O70  1  0.49988367  0.50100160  0.61504586  1
  O  O71  1  0.50000000  0.50000000  0.92952000  1
  O  O72  1  1.00000000  0.50000000  0.81573000  1
  O  O73  1  0.49864214  0.50821803  0.70226613  1
  O  O74  1  0.99857821  0.50865427  0.60204390  1
  O  O75  1  0.69034000  1.00000000  0.00000000  1
  O  O76  1  0.19034000  0.00000000  0.88621000  1
  O  O77  1  0.69034000  1.00000000  0.77241000  1
  O  O78  1  0.19605783  0.99188123  0.65656238  1
  O  O79  1  0.74091225  0.98960905  0.53084417  1
  O  O80  1  0.30966000  0.00000000  1.00000000  1
  O  O81  1  0.80966000  1.00000000  0.88621000  1
  O  O82  1  0.30966000  0.00000000  0.77241000  1
  O  O83  1  0.80338190  0.99225218  0.65678346  1
  O  O84  1  0.25660983  0.98452671  0.53033156  1
