# generated using pymatgen
data_MgTiMnVZnCrFeCoCuNiSb20ClO54
_symmetry_space_group_name_H-M   'P 1'
_cell_length_a   6.69617800
_cell_length_b   9.56259700
_cell_length_c   29.32859800
_cell_angle_alpha   89.55456000
_cell_angle_beta   89.96727800
_cell_angle_gamma   89.99934300
_symmetry_Int_Tables_number   1
_chemical_formula_structural   MgTiMnVZnCrFeCoCuNiSb20ClO54
_chemical_formula_sum
'Mg1 Ti1 Mn1 V1 Zn1 Cr1 Fe1 Co1 Cu1 Ni1 Sb20 Cl1 O54'
_cell_volume   1877.93670484
_cell_formula_units_Z   1
loop_
 _symmetry_equiv_pos_site_id
 _symmetry_equiv_pos_as_xyz
  1  'x, y, z'
loop_
 _atom_site_type_symbol
 _atom_site_label
 _atom_site_symmetry_multiplicity
 _atom_site_fract_x
 _atom_site_fract_y
 _atom_site_fract_z
 _atom_site_occupancy
  Mg  Mg0  1  0.50000000  0.66768000  0.88621000  1
  Ti  Ti1  1  0.50415785  0.82517351  0.55617956  1
  Mn  Mn2  1  0.00000000  0.66768000  0.00000000  1
  V  V3  1  0.49173388  0.15635104  0.55390356  1
  Zn  Zn4  1  0.00000000  0.83232000  0.88621000  1
  Cr  Cr5  1  0.01430455  0.65112000  0.55761740  1
  Fe  Fe6  1  0.50000000  0.50000000  0.00000000  1
  Co  Co7  1  0.52521022  0.54677378  0.54894037  1
  Cu  Cu8  1  0.50432780  0.00759583  0.65907311  1
  Ni  Ni9  1  0.50000000  0.50000000  0.77241000  1
  Sb  Sb10  1  0.00000000  0.00000000  0.00000000  1
  Sb  Sb11  1  0.50000000  0.00000000  0.88621000  1
  Sb  Sb12  1  0.00000000  0.00000000  0.77241000  1
  Sb  Sb13  1  0.99825382  0.96315525  0.53565748  1
  Sb  Sb14  1  0.00000000  0.50000000  0.88621000  1
  Sb  Sb15  1  0.00042098  0.50376804  0.64949414  1
  Sb  Sb16  1  0.00000000  0.33232000  0.00000000  1
  Sb  Sb17  1  0.50000000  0.33232000  0.88621000  1
  Sb  Sb18  1  0.00000000  0.33232000  0.77241000  1
  Sb  Sb19  1  0.50068644  0.34317829  0.66154306  1
  Sb  Sb20  1  0.98282476  0.29051088  0.51867951  1
  Sb  Sb21  1  0.50000000  0.83232000  0.00000000  1
  Sb  Sb22  1  0.50000000  0.83232000  0.77241000  1
  Sb  Sb23  1  0.00134800  0.84480955  0.65837602  1
  Sb  Sb24  1  0.50000000  0.16768000  0.00000000  1
  Sb  Sb25  1  0.00000000  0.16768000  0.88621000  1
  Sb  Sb26  1  0.50000000  0.16768000  0.77241000  1
  Sb  Sb27  1  0.01060148  0.16058040  0.64664940  1
  Sb  Sb28  1  0.00000000  0.66768000  0.77241000  1
  Sb  Sb29  1  0.50049278  0.67652664  0.66370552  1
  Cl  Cl30  1  0.49208287  0.50144814  0.47760135  1
  O  O31  1  0.00000000  0.17164000  0.95506000  1
  O  O32  1  0.50000000  0.17164000  0.84126000  1
  O  O33  1  0.99980400  0.15525700  0.72934800  1
  O  O34  1  0.47961661  0.18641069  0.61437247  1
  O  O35  1  0.50000000  0.17164000  0.93115000  1
  O  O36  1  0.00000000  0.17164000  0.81736000  1
  O  O37  1  0.50101012  0.17385475  0.70391397  1
  O  O38  1  0.99805277  0.14313330  0.57133715  1
  O  O39  1  0.30253000  0.67164000  0.00000000  1
  O  O40  1  0.80253000  0.67164000  0.88621000  1
  O  O41  1  0.30253000  0.67164000  0.77241000  1
  O  O42  1  0.80517661  0.68554973  0.66617105  1
  O  O43  1  0.29113684  0.69317779  0.54877991  1
  O  O44  1  0.69747000  0.67164000  0.00000000  1
  O  O45  1  0.19747000  0.67164000  0.88621000  1
  O  O46  1  0.69747000  0.67164000  0.77241000  1
  O  O47  1  0.19642002  0.68377552  0.66611642  1
  O  O48  1  0.72828014  0.69298993  0.54916802  1
  O  O49  1  0.30253000  0.32836000  0.00000000  1
  O  O50  1  0.80253000  0.32836000  0.88621000  1
  O  O51  1  0.30253000  0.32836000  0.77241000  1
  O  O52  1  0.79312492  0.34046819  0.66197919  1
  O  O53  1  0.30510504  0.25391303  0.53170086  1
  O  O54  1  0.69747000  0.32836000  0.00000000  1
  O  O55  1  0.19747000  0.32836000  0.88621000  1
  O  O56  1  0.69747000  0.32836000  0.77241000  1
  O  O57  1  0.20941576  0.35126373  0.66666667  1
  O  O58  1  0.68284876  0.27047554  0.53886660  1
  O  O59  1  0.00000000  0.82836000  0.95506000  1
  O  O60  1  0.50000000  0.82836000  0.84126000  1
  O  O61  1  0.99978400  0.84468700  0.72933600  1
  O  O62  1  0.50590327  0.82900225  0.61840208  1
  O  O63  1  0.50000000  0.82836000  0.93115000  1
  O  O64  1  0.00000000  0.82836000  0.81736000  1
  O  O65  1  0.50256863  0.83876657  0.70588924  1
  O  O66  1  0.00457203  0.83254857  0.59056964  1
  O  O67  1  0.00000000  0.50000000  0.95668000  1
  O  O68  1  0.50000000  0.50000000  0.84289000  1
  O  O69  1  0.99950800  0.49998000  0.72830400  1
  O  O70  1  0.50081560  0.51675980  0.61658659  1
  O  O71  1  0.50000000  0.50000000  0.92952000  1
  O  O72  1  0.00000000  0.50000000  0.81573000  1
  O  O73  1  0.50863522  0.50994215  0.70510541  1
  O  O74  1  0.00550192  0.45834560  0.55614058  1
  O  O75  1  0.30966000  0.00000000  0.00000000  1
  O  O76  1  0.80966000  0.00000000  0.88621000  1
  O  O77  1  0.30966000  0.00000000  0.77241000  1
  O  O78  1  0.80409442  0.99912011  0.65816670  1
  O  O79  1  0.32670025  0.98471543  0.54610023  1
  O  O80  1  0.69034000  0.00000000  0.00000000  1
  O  O81  1  0.19034000  0.00000000  0.88621000  1
  O  O82  1  0.69034000  0.00000000  0.77241000  1
  O  O83  1  0.20474272  0.99277065  0.65984747  1
  O  O84  1  0.68061651  0.98891623  0.54285755  1
