# generated using pymatgen
data_MgTiMnVZnCrFeCoCuNiSb20ClO54
_symmetry_space_group_name_H-M   'P 1'
_cell_length_a   6.70362400
_cell_length_b   9.47279400
_cell_length_c   30.17746500
_cell_angle_alpha   89.95976200
_cell_angle_beta   89.96062500
_cell_angle_gamma   89.97969000
_symmetry_Int_Tables_number   1
_chemical_formula_structural   MgTiMnVZnCrFeCoCuNiSb20ClO54
_chemical_formula_sum
'Mg1 Ti1 Mn1 V1 Zn1 Cr1 Fe1 Co1 Cu1 Ni1 Sb20 Cl1 O54'
_cell_volume   1916.32982217
_cell_formula_units_Z   1
loop_
 _symmetry_equiv_pos_site_id
 _symmetry_equiv_pos_as_xyz
  1  'x, y, z'
loop_
 _atom_site_type_symbol
 _atom_site_label
 _atom_site_symmetry_multiplicity
 _atom_site_fract_x
 _atom_site_fract_y
 _atom_site_fract_z
 _atom_site_occupancy
  Mg  Mg0  1  0.50000000  0.16768000  0.22759000  1
  Ti  Ti1  1  0.50000000  0.83232000  0.22759000  1
  Mn  Mn2  1  0.49909696  0.00358915  0.33313315  1
  V  V3  1  1.00000000  0.66768000  0.22759000  1
  Zn  Zn4  1  0.99926941  0.85181286  0.33732078  1
  Cr  Cr5  1  0.50000000  0.50000000  0.00000000  1
  Fe  Fe6  1  0.49597432  0.82424268  0.43833268  1
  Co  Co7  1  0.50144505  0.49634129  0.44298099  1
  Cu  Cu8  1  0.99466641  0.00070321  0.42357474  1
  Ni  Ni9  1  0.99997104  0.15849503  0.33717090  1
  Sb  Sb10  1  0.00000000  0.00000000  0.00000000  1
  Sb  Sb11  1  0.50000000  1.00000000  0.11379000  1
  Sb  Sb12  1  1.00000000  0.00000000  0.22759000  1
  Sb  Sb13  1  1.00000000  0.50000000  0.11379000  1
  Sb  Sb14  1  0.50000000  0.50000000  0.22759000  1
  Sb  Sb15  1  0.00048678  0.49883343  0.33855010  1
  Sb  Sb16  1  0.00000000  0.66768000  1.00000000  1
  Sb  Sb17  1  0.50000000  0.66768000  0.11379000  1
  Sb  Sb18  1  0.49996108  0.67222302  0.33801298  1
  Sb  Sb19  1  0.99785285  0.66978429  0.44954219  1
  Sb  Sb20  1  0.50000000  0.16768000  0.00000000  1
  Sb  Sb21  1  1.00000000  0.16768000  0.11379000  1
  Sb  Sb22  1  0.50162137  0.15687835  0.44161048  1
  Sb  Sb23  1  0.50000000  0.83232000  0.00000000  1
  Sb  Sb24  1  1.00000000  0.83232000  0.11379000  1
  Sb  Sb25  1  1.00000000  0.33232000  1.00000000  1
  Sb  Sb26  1  0.50000000  0.33232000  0.11379000  1
  Sb  Sb27  1  1.00000000  0.33232000  0.22759000  1
  Sb  Sb28  1  0.50016547  0.32699878  0.33714603  1
  Sb  Sb29  1  0.00026133  0.32595081  0.44973544  1
  Cl  Cl30  1  0.50774273  0.48992941  0.51417027  1
  O  O31  1  1.00000000  0.82836000  0.04494000  1
  O  O32  1  0.50000000  0.82836000  0.15874000  1
  O  O33  1  0.99980400  0.84474300  0.27065200  1
  O  O34  1  0.49700619  0.84446772  0.37480115  1
  O  O35  1  0.50000000  0.82836000  0.06885000  1
  O  O36  1  1.00000000  0.82836000  0.18264000  1
  O  O37  1  0.50023977  0.83284313  0.29212348  1
  O  O38  1  0.00211287  0.81484331  0.40504915  1
  O  O39  1  0.30253000  0.32836000  1.00000000  1
  O  O40  1  0.80253000  0.32836000  0.11379000  1
  O  O41  1  0.30253000  0.32836000  0.22759000  1
  O  O42  1  0.80548305  0.33460781  0.33564370  1
  O  O43  1  0.32223834  0.33641928  0.44099942  1
  O  O44  1  0.69747000  0.32836000  1.00000000  1
  O  O45  1  0.19747000  0.32836000  0.11379000  1
  O  O46  1  0.69747000  0.32836000  0.22759000  1
  O  O47  1  0.19510087  0.33453578  0.33527104  1
  O  O48  1  0.68057883  0.33720333  0.43965002  1
  O  O49  1  0.30253000  0.67164000  0.00000000  1
  O  O50  1  0.80253000  0.67164000  0.11379000  1
  O  O51  1  0.30253000  0.67164000  0.22759000  1
  O  O52  1  0.80209775  0.65922507  0.33661650  1
  O  O53  1  0.32454776  0.66176302  0.44231982  1
  O  O54  1  0.69747000  0.67164000  0.00000000  1
  O  O55  1  0.19747000  0.67164000  0.11379000  1
  O  O56  1  0.69747000  0.67164000  0.22759000  1
  O  O57  1  0.19783618  0.65932922  0.33621334  1
  O  O58  1  0.67588755  0.66351037  0.44100670  1
  O  O59  1  1.00000000  0.17164000  0.04494000  1
  O  O60  1  0.50000000  0.17164000  0.15874000  1
  O  O61  1  0.99978400  0.15531300  0.27066400  1
  O  O62  1  0.49706043  0.15702873  0.37648952  1
  O  O63  1  0.50000000  0.17164000  0.06885000  1
  O  O64  1  1.00000000  0.17164000  0.18264000  1
  O  O65  1  0.50028082  0.16677763  0.29549271  1
  O  O66  1  0.00325222  0.18468139  0.40326925  1
  O  O67  1  0.00000000  0.50000000  0.04332000  1
  O  O68  1  0.50000000  0.50000000  0.15711000  1
  O  O69  1  0.99950800  0.50002000  0.27169600  1
  O  O70  1  0.49811743  0.49791431  0.37815153  1
  O  O71  1  0.50000000  0.50000000  0.07048000  1
  O  O72  1  1.00000000  0.50000000  0.18427000  1
  O  O73  1  0.50152557  0.50062733  0.29412440  1
  O  O74  1  0.00249210  0.49682749  0.40648976  1
  O  O75  1  0.30966000  1.00000000  0.00000000  1
  O  O76  1  0.80966000  1.00000000  0.11379000  1
  O  O77  1  0.30966000  1.00000000  0.22759000  1
  O  O78  1  0.78258062  0.00848640  0.33797598  1
  O  O79  1  0.30761999  0.99450511  0.44738189  1
  O  O80  1  0.69034000  1.00000000  0.00000000  1
  O  O81  1  0.19034000  1.00000000  0.11379000  1
  O  O82  1  0.69034000  1.00000000  0.22759000  1
  O  O83  1  0.21568145  0.00847066  0.33781658  1
  O  O84  1  0.70055665  0.99758797  0.44662144  1
