# generated using pymatgen
data_MgTiMnVZnCrFeCoCuNiSb20ClO54
_symmetry_space_group_name_H-M   'P 1'
_cell_length_a   6.66791200
_cell_length_b   9.66000300
_cell_length_c   29.15973300
_cell_angle_alpha   89.86831800
_cell_angle_beta   89.98442400
_cell_angle_gamma   89.99935800
_symmetry_Int_Tables_number   1
_chemical_formula_structural   MgTiMnVZnCrFeCoCuNiSb20ClO54
_chemical_formula_sum
'Mg1 Ti1 Mn1 V1 Zn1 Cr1 Fe1 Co1 Cu1 Ni1 Sb20 Cl1 O54'
_cell_volume   1878.23314772
_cell_formula_units_Z   1
loop_
 _symmetry_equiv_pos_site_id
 _symmetry_equiv_pos_as_xyz
  1  'x, y, z'
loop_
 _atom_site_type_symbol
 _atom_site_label
 _atom_site_symmetry_multiplicity
 _atom_site_fract_x
 _atom_site_fract_y
 _atom_site_fract_z
 _atom_site_occupancy
  Mg  Mg0  1  0.50000000  1.00000000  0.11379000  1
  Ti  Ti1  1  0.99916911  0.33099078  0.44103609  1
  Mn  Mn2  1  0.00000000  0.66768000  0.22759000  1
  V  V3  1  0.99919770  0.84316509  0.34106800  1
  Zn  Zn4  1  0.99942505  0.15943868  0.34463257  1
  Cr  Cr5  1  0.00000000  0.66768000  0.00000000  1
  Fe  Fe6  1  0.50000000  0.66768000  0.11379000  1
  Co  Co7  1  0.49923961  0.51425937  0.45621602  1
  Cu  Cu8  1  0.99911258  0.67117691  0.44194119  1
  Ni  Ni9  1  0.99929834  0.97487301  0.44299905  1
  Sb  Sb10  1  0.00000000  0.00000000  0.00000000  1
  Sb  Sb11  1  0.00000000  0.00000000  0.22759000  1
  Sb  Sb12  1  0.49934230  0.00220115  0.34438494  1
  Sb  Sb13  1  0.50000000  0.50000000  0.00000000  1
  Sb  Sb14  1  0.00000000  0.50000000  0.11379000  1
  Sb  Sb15  1  0.50000000  0.50000000  0.22759000  1
  Sb  Sb16  1  0.99928642  0.50094589  0.34006972  1
  Sb  Sb17  1  0.00000000  0.33232000  0.00000000  1
  Sb  Sb18  1  0.50000000  0.33232000  0.11379000  1
  Sb  Sb19  1  0.00000000  0.33232000  0.22759000  1
  Sb  Sb20  1  0.49930659  0.33555505  0.34816426  1
  Sb  Sb21  1  0.50000000  0.83232000  0.00000000  1
  Sb  Sb22  1  0.00000000  0.83232000  0.11379000  1
  Sb  Sb23  1  0.50000000  0.83232000  0.22759000  1
  Sb  Sb24  1  0.49919867  0.82472055  0.45641043  1
  Sb  Sb25  1  0.50000000  0.16768000  0.00000000  1
  Sb  Sb26  1  0.00000000  0.16768000  0.11379000  1
  Sb  Sb27  1  0.50000000  0.16768000  0.22759000  1
  Sb  Sb28  1  0.49967723  0.18599305  0.46610044  1
  Sb  Sb29  1  0.49903487  0.66388314  0.34362291  1
  Cl  Cl30  1  0.49896312  0.52109624  0.52945783  1
  O  O31  1  0.00000000  0.17164000  0.04494000  1
  O  O32  1  0.50000000  0.17164000  0.15874000  1
  O  O33  1  0.00019600  0.15525700  0.27065200  1
  O  O34  1  0.49967007  0.16751263  0.39193082  1
  O  O35  1  0.50000000  0.17164000  0.06885000  1
  O  O36  1  0.00000000  0.17164000  0.18264000  1
  O  O37  1  0.49955192  0.17245550  0.30022393  1
  O  O38  1  0.99838423  0.16527535  0.41618251  1
  O  O39  1  0.69747000  0.67164000  0.00000000  1
  O  O40  1  0.19747000  0.67164000  0.11379000  1
  O  O41  1  0.69747000  0.67164000  0.22759000  1
  O  O42  1  0.19036109  0.66871213  0.33772093  1
  O  O43  1  0.69167940  0.65909962  0.45255616  1
  O  O44  1  0.30253000  0.67164000  0.00000000  1
  O  O45  1  0.80253000  0.67164000  0.11379000  1
  O  O46  1  0.30253000  0.67164000  0.22759000  1
  O  O47  1  0.80766533  0.66923010  0.33760321  1
  O  O48  1  0.30702450  0.65917112  0.45257575  1
  O  O49  1  0.69747000  0.32836000  0.00000000  1
  O  O50  1  0.19747000  0.32836000  0.11379000  1
  O  O51  1  0.69747000  0.32836000  0.22759000  1
  O  O52  1  0.19643365  0.33800923  0.34156905  1
  O  O53  1  0.71434887  0.34660302  0.45720912  1
  O  O54  1  0.30253000  0.32836000  0.00000000  1
  O  O55  1  0.80253000  0.32836000  0.11379000  1
  O  O56  1  0.30253000  0.32836000  0.22759000  1
  O  O57  1  0.80235250  0.33758117  0.34129681  1
  O  O58  1  0.28365428  0.34648669  0.45707904  1
  O  O59  1  0.00000000  0.82836000  0.04494000  1
  O  O60  1  0.50000000  0.82836000  0.15874000  1
  O  O61  1  0.00021600  0.84468700  0.27066400  1
  O  O62  1  0.49964496  0.83204770  0.38590659  1
  O  O63  1  0.50000000  0.82836000  0.06885000  1
  O  O64  1  0.00000000  0.82836000  0.18264000  1
  O  O65  1  0.49868809  0.83455447  0.29785768  1
  O  O66  1  0.99983847  0.82891235  0.40008367  1
  O  O67  1  0.00000000  0.50000000  0.04332000  1
  O  O68  1  0.50000000  0.50000000  0.15711000  1
  O  O69  1  0.00049200  0.49998000  0.27169600  1
  O  O70  1  0.49847553  0.50302227  0.38954270  1
  O  O71  1  0.50000000  0.50000000  0.07048000  1
  O  O72  1  0.00000000  0.50000000  0.18427000  1
  O  O73  1  0.49973160  0.49451474  0.30017660  1
  O  O74  1  0.99721530  0.49453725  0.40754964  1
  O  O75  1  0.69034000  0.00000000  1.00000000  1
  O  O76  1  0.19034000  1.00000000  0.11379000  1
  O  O77  1  0.69034000  0.00000000  0.22759000  1
  O  O78  1  0.19814994  0.99551011  0.34006080  1
  O  O79  1  0.70920639  0.97672722  0.45780130  1
  O  O80  1  0.30966000  1.00000000  0.00000000  1
  O  O81  1  0.80966000  0.00000000  0.11379000  1
  O  O82  1  0.30966000  1.00000000  0.22759000  1
  O  O83  1  0.80061962  0.99535785  0.33985395  1
  O  O84  1  0.28945967  0.97662625  0.45777793  1
