# generated using pymatgen
data_MgTiMnVZnCrFeCoCuNiSb20ClO54
_symmetry_space_group_name_H-M   'P 1'
_cell_length_a   6.70395000
_cell_length_b   9.46227600
_cell_length_c   29.02552500
_cell_angle_alpha   90.19024200
_cell_angle_beta   89.99585300
_cell_angle_gamma   89.99398400
_symmetry_Int_Tables_number   1
_chemical_formula_structural   MgTiMnVZnCrFeCoCuNiSb20ClO54
_chemical_formula_sum
'Mg1 Ti1 Mn1 V1 Zn1 Cr1 Fe1 Co1 Cu1 Ni1 Sb20 Cl1 O54'
_cell_volume   1841.21313483
_cell_formula_units_Z   1
loop_
 _symmetry_equiv_pos_site_id
 _symmetry_equiv_pos_as_xyz
  1  'x, y, z'
loop_
 _atom_site_type_symbol
 _atom_site_label
 _atom_site_symmetry_multiplicity
 _atom_site_fract_x
 _atom_site_fract_y
 _atom_site_fract_z
 _atom_site_occupancy
  Mg  Mg0  1  1.00000000  0.66768000  0.22759000  1
  Ti  Ti1  1  0.50000000  0.50000000  0.00000000  1
  Mn  Mn2  1  0.50000000  1.00000000  0.11379000  1
  V  V3  1  0.00029193  0.50947410  0.33827397  1
  Zn  Zn4  1  0.50143196  0.18026492  0.45149160  1
  Cr  Cr5  1  0.49900663  0.66384343  0.34039203  1
  Fe  Fe6  1  0.00000000  0.83232000  0.11379000  1
  Co  Co7  1  0.50178729  0.50085322  0.44854485  1
  Cu  Cu8  1  1.00000000  0.00000000  0.22759000  1
  Ni  Ni9  1  1.00000000  0.33232000  0.00000000  1
  Sb  Sb10  1  0.00000000  0.00000000  0.00000000  1
  Sb  Sb11  1  0.49920333  0.99560658  0.34168337  1
  Sb  Sb12  1  0.00003061  0.99418489  0.46152414  1
  Sb  Sb13  1  0.00000000  0.50000000  0.11379000  1
  Sb  Sb14  1  0.50000000  0.50000000  0.22759000  1
  Sb  Sb15  1  0.00000000  0.66768000  0.00000000  1
  Sb  Sb16  1  0.50000000  0.66768000  0.11379000  1
  Sb  Sb17  1  0.00007713  0.66316070  0.45658942  1
  Sb  Sb18  1  0.50000000  0.16768000  0.00000000  1
  Sb  Sb19  1  0.00000000  0.16768000  0.11379000  1
  Sb  Sb20  1  0.50000000  0.16768000  0.22759000  1
  Sb  Sb21  1  0.00004341  0.17381901  0.34039573  1
  Sb  Sb22  1  0.50000000  0.83232000  0.00000000  1
  Sb  Sb23  1  0.50000000  0.83232000  0.22759000  1
  Sb  Sb24  1  0.99892639  0.82510899  0.33636366  1
  Sb  Sb25  1  0.50061649  0.82956668  0.45479358  1
  Sb  Sb26  1  0.50000000  0.33232000  0.11379000  1
  Sb  Sb27  1  1.00000000  0.33232000  0.22759000  1
  Sb  Sb28  1  0.50019097  0.34168634  0.34622926  1
  Sb  Sb29  1  0.00137271  0.34531822  0.45471637  1
  Cl  Cl30  1  0.51026662  0.50043186  0.52305781  1
  O  O31  1  0.00000000  0.82836000  0.04494000  1
  O  O32  1  0.50000000  0.82836000  0.15874000  1
  O  O33  1  0.99980400  0.84474300  0.27065200  1
  O  O34  1  0.49687734  0.82741929  0.38339896  1
  O  O35  1  0.50000000  0.82836000  0.06885000  1
  O  O36  1  0.00000000  0.82836000  0.18264000  1
  O  O37  1  0.50090725  0.82976647  0.29773454  1
  O  O38  1  0.00022530  0.83103081  0.40903380  1
  O  O39  1  0.30253000  0.32836000  1.00000000  1
  O  O40  1  0.80253000  0.32836000  0.11379000  1
  O  O41  1  0.30253000  0.32836000  0.22759000  1
  O  O42  1  0.80654109  0.34063611  0.33858551  1
  O  O43  1  0.31468503  0.34892186  0.44578457  1
  O  O44  1  0.69747000  0.32836000  0.00000000  1
  O  O45  1  0.19747000  0.32836000  0.11379000  1
  O  O46  1  0.69747000  0.32836000  0.22759000  1
  O  O47  1  0.19379010  0.34009198  0.33823232  1
  O  O48  1  0.68788641  0.34975200  0.44378186  1
  O  O49  1  0.30253000  0.67164000  1.00000000  1
  O  O50  1  0.80253000  0.67164000  0.11379000  1
  O  O51  1  0.30253000  0.67164000  0.22759000  1
  O  O52  1  0.80459804  0.65654857  0.33886973  1
  O  O53  1  0.30990176  0.65289791  0.44763889  1
  O  O54  1  0.69747000  0.67164000  0.00000000  1
  O  O55  1  0.19747000  0.67164000  0.11379000  1
  O  O56  1  0.69747000  0.67164000  0.22759000  1
  O  O57  1  0.19459201  0.65726182  0.33860235  1
  O  O58  1  0.69145834  0.65255871  0.44556575  1
  O  O59  1  1.00000000  0.17164000  0.04494000  1
  O  O60  1  0.50000000  0.17164000  0.15874000  1
  O  O61  1  0.99978400  0.15531300  0.27066400  1
  O  O62  1  0.49759828  0.16417305  0.38244277  1
  O  O63  1  0.50000000  0.17164000  0.06885000  1
  O  O64  1  1.00000000  0.17164000  0.18264000  1
  O  O65  1  0.50097241  0.17319488  0.29737399  1
  O  O66  1  0.00170739  0.16918989  0.41100859  1
  O  O67  1  1.00000000  0.50000000  0.04332000  1
  O  O68  1  0.50000000  0.50000000  0.15711000  1
  O  O69  1  0.99950800  0.50002000  0.27169600  1
  O  O70  1  0.49483310  0.51272768  0.38357855  1
  O  O71  1  0.50000000  0.50000000  0.07048000  1
  O  O72  1  0.00000000  0.50000000  0.18427000  1
  O  O73  1  0.50002598  0.49773040  0.29765736  1
  O  O74  1  0.00393677  0.50017444  0.40317493  1
  O  O75  1  0.30966000  0.00000000  1.00000000  1
  O  O76  1  0.80966000  1.00000000  0.11379000  1
  O  O77  1  0.30966000  0.00000000  0.22759000  1
  O  O78  1  0.80276725  0.00227210  0.34181923  1
  O  O79  1  0.30757482  0.00168855  0.45279338  1
  O  O80  1  0.69034000  1.00000000  0.00000000  1
  O  O81  1  0.19034000  0.00000000  0.11379000  1
  O  O82  1  0.69034000  1.00000000  0.22759000  1
  O  O83  1  0.19558474  0.00197124  0.34153129  1
  O  O84  1  0.69230973  0.00306510  0.45174229  1
