# generated using pymatgen
data_MgTiMnVZnCrFeCoCuNiSb20ClO54
_symmetry_space_group_name_H-M   'P 1'
_cell_length_a   6.62021500
_cell_length_b   9.57505700
_cell_length_c   28.81853500
_cell_angle_alpha   89.88016800
_cell_angle_beta   89.95547200
_cell_angle_gamma   89.97909900
_symmetry_Int_Tables_number   1
_chemical_formula_structural   MgTiMnVZnCrFeCoCuNiSb20ClO54
_chemical_formula_sum
'Mg1 Ti1 Mn1 V1 Zn1 Cr1 Fe1 Co1 Cu1 Ni1 Sb20 Cl1 O54'
_cell_volume   1826.77160258
_cell_formula_units_Z   1
loop_
 _symmetry_equiv_pos_site_id
 _symmetry_equiv_pos_as_xyz
  1  'x, y, z'
loop_
 _atom_site_type_symbol
 _atom_site_label
 _atom_site_symmetry_multiplicity
 _atom_site_fract_x
 _atom_site_fract_y
 _atom_site_fract_z
 _atom_site_occupancy
  Mg  Mg0  1  0.50000000  0.00000000  0.11379000  1
  Ti  Ti1  1  0.50000000  0.16768000  0.22759000  1
  Mn  Mn2  1  0.50000000  0.66768000  0.11379000  1
  V  V3  1  0.50000000  0.16768000  1.00000000  1
  Zn  Zn4  1  0.00044854  0.82689398  0.33699613  1
  Cr  Cr5  1  0.00000000  0.66768000  0.22759000  1
  Fe  Fe6  1  0.99847763  0.33634606  0.45139292  1
  Co  Co7  1  0.49704564  0.50071371  0.45538230  1
  Cu  Cu8  1  0.00000000  0.33232000  0.00000000  1
  Ni  Ni9  1  0.00028918  0.17083893  0.33934252  1
  Sb  Sb10  1  0.00000000  0.00000000  0.00000000  1
  Sb  Sb11  1  0.00000000  0.00000000  0.22759000  1
  Sb  Sb12  1  0.49905496  0.00147841  0.34921510  1
  Sb  Sb13  1  0.99525619  0.99803535  0.42184335  1
  Sb  Sb14  1  0.50000000  0.50000000  1.00000000  1
  Sb  Sb15  1  0.00000000  0.50000000  0.11379000  1
  Sb  Sb16  1  0.50000000  0.50000000  0.22759000  1
  Sb  Sb17  1  0.99938793  0.49856021  0.34163902  1
  Sb  Sb18  1  0.50000000  0.33232000  0.11379000  1
  Sb  Sb19  1  0.00000000  0.33232000  0.22759000  1
  Sb  Sb20  1  0.49987322  0.32975114  0.34370230  1
  Sb  Sb21  1  0.50000000  0.83232000  1.00000000  1
  Sb  Sb22  1  0.00000000  0.83232000  0.11379000  1
  Sb  Sb23  1  0.50000000  0.83232000  0.22759000  1
  Sb  Sb24  1  0.49450217  0.81308171  0.46721729  1
  Sb  Sb25  1  0.00000000  0.16768000  0.11379000  1
  Sb  Sb26  1  0.49875461  0.18985268  0.46823099  1
  Sb  Sb27  1  1.00000000  0.66768000  0.00000000  1
  Sb  Sb28  1  0.49976554  0.66237872  0.35054021  1
  Sb  Sb29  1  0.99681240  0.64961151  0.45917655  1
  Cl  Cl30  1  0.49310514  0.54411687  0.52939818  1
  O  O31  1  0.00000000  0.17164000  0.04494000  1
  O  O32  1  0.50000000  0.17164000  0.15874000  1
  O  O33  1  0.00019600  0.15525700  0.27065200  1
  O  O34  1  0.49920653  0.17466617  0.39260286  1
  O  O35  1  0.50000000  0.17164000  0.06885000  1
  O  O36  1  0.00000000  0.17164000  0.18264000  1
  O  O37  1  0.49999100  0.16053461  0.30010959  1
  O  O38  1  0.99945088  0.19535043  0.40674476  1
  O  O39  1  0.69747000  0.67164000  0.00000000  1
  O  O40  1  0.19747000  0.67164000  0.11379000  1
  O  O41  1  0.69747000  0.67164000  0.22759000  1
  O  O42  1  0.19981560  0.65699670  0.33894233  1
  O  O43  1  0.68078881  0.64894547  0.44529460  1
  O  O44  1  0.30253000  0.67164000  1.00000000  1
  O  O45  1  0.80253000  0.67164000  0.11379000  1
  O  O46  1  0.30253000  0.67164000  0.22759000  1
  O  O47  1  0.79954510  0.65702255  0.33860499  1
  O  O48  1  0.31308427  0.64847720  0.44412459  1
  O  O49  1  0.69747000  0.32836000  0.00000000  1
  O  O50  1  0.19747000  0.32836000  0.11379000  1
  O  O51  1  0.69747000  0.32836000  0.22759000  1
  O  O52  1  0.19638415  0.33499936  0.33702540  1
  O  O53  1  0.70407207  0.34936159  0.46151937  1
  O  O54  1  0.30253000  0.32836000  1.00000000  1
  O  O55  1  0.80253000  0.32836000  0.11379000  1
  O  O56  1  0.30253000  0.32836000  0.22759000  1
  O  O57  1  0.80351727  0.33455046  0.33676751  1
  O  O58  1  0.29164702  0.34974287  0.46080829  1
  O  O59  1  0.00000000  0.82836000  0.04494000  1
  O  O60  1  0.50000000  0.82836000  0.15874000  1
  O  O61  1  0.00021600  0.84468700  0.27066400  1
  O  O62  1  0.49994279  0.83642974  0.39305714  1
  O  O63  1  0.50000000  0.82836000  0.06885000  1
  O  O64  1  0.00000000  0.82836000  0.18264000  1
  O  O65  1  0.49994984  0.83646032  0.30196166  1
  O  O66  1  0.99429263  0.79671650  0.40932746  1
  O  O67  1  1.00000000  0.50000000  0.04332000  1
  O  O68  1  0.50000000  0.50000000  0.15711000  1
  O  O69  1  0.00049200  0.49998000  0.27169600  1
  O  O70  1  0.50094494  0.48423832  0.38981910  1
  O  O71  1  0.50000000  0.50000000  0.07048000  1
  O  O72  1  0.00000000  0.50000000  0.18427000  1
  O  O73  1  0.49987788  0.49895941  0.30034370  1
  O  O74  1  0.99690064  0.49881103  0.41046460  1
  O  O75  1  0.69034000  1.00000000  0.00000000  1
  O  O76  1  0.19034000  0.00000000  0.11379000  1
  O  O77  1  0.69034000  1.00000000  0.22759000  1
  O  O78  1  0.19134024  0.00251898  0.35387502  1
  O  O79  1  0.74632847  0.99712307  0.45820277  1
  O  O80  1  0.30966000  0.00000000  1.00000000  1
  O  O81  1  0.80966000  1.00000000  0.11379000  1
  O  O82  1  0.30966000  0.00000000  0.22759000  1
  O  O83  1  0.80784829  0.00286396  0.35408988  1
  O  O84  1  0.24335784  0.99189597  0.45831726  1
