# generated using pymatgen
data_MgTiMnVZnCrFeCoCuNiSb20ClO54
_symmetry_space_group_name_H-M   'P 1'
_cell_length_a   6.59094000
_cell_length_b   9.61323400
_cell_length_c   28.64647700
_cell_angle_alpha   89.81500100
_cell_angle_beta   89.96542600
_cell_angle_gamma   89.99040100
_symmetry_Int_Tables_number   1
_chemical_formula_structural   MgTiMnVZnCrFeCoCuNiSb20ClO54
_chemical_formula_sum
'Mg1 Ti1 Mn1 V1 Zn1 Cr1 Fe1 Co1 Cu1 Ni1 Sb20 Cl1 O54'
_cell_volume   1815.03808472
_cell_formula_units_Z   1
loop_
 _symmetry_equiv_pos_site_id
 _symmetry_equiv_pos_as_xyz
  1  'x, y, z'
loop_
 _atom_site_type_symbol
 _atom_site_label
 _atom_site_symmetry_multiplicity
 _atom_site_fract_x
 _atom_site_fract_y
 _atom_site_fract_z
 _atom_site_occupancy
  Mg  Mg0  1  0.50000000  0.16768000  0.00000000  1
  Ti  Ti1  1  0.50000000  0.66768000  0.11379000  1
  Mn  Mn2  1  0.00000000  0.33232000  0.00000000  1
  V  V3  1  0.50000000  0.16768000  0.22759000  1
  Zn  Zn4  1  0.99971128  0.47983312  0.34944497  1
  Cr  Cr5  1  0.99981743  0.17889199  0.34269882  1
  Fe  Fe6  1  0.00000000  0.83232000  0.11379000  1
  Co  Co7  1  0.49963003  0.50644709  0.45599974  1
  Cu  Cu8  1  0.00000000  0.16768000  0.11379000  1
  Ni  Ni9  1  0.00000000  0.50000000  0.11379000  1
  Sb  Sb10  1  0.00000000  0.00000000  0.00000000  1
  Sb  Sb11  1  0.50000000  0.00000000  0.11379000  1
  Sb  Sb12  1  0.00000000  0.00000000  0.22759000  1
  Sb  Sb13  1  0.49983983  0.00700331  0.34863168  1
  Sb  Sb14  1  0.99905952  0.01430148  0.42708243  1
  Sb  Sb15  1  0.50000000  0.50000000  0.00000000  1
  Sb  Sb16  1  0.50000000  0.50000000  0.22759000  1
  Sb  Sb17  1  1.00000000  0.66768000  1.00000000  1
  Sb  Sb18  1  0.00000000  0.66768000  0.22759000  1
  Sb  Sb19  1  0.49997700  0.66023780  0.34979878  1
  Sb  Sb20  1  0.99966245  0.65450751  0.46871213  1
  Sb  Sb21  1  0.49927377  0.18865647  0.47047523  1
  Sb  Sb22  1  0.50000000  0.83232000  1.00000000  1
  Sb  Sb23  1  0.50000000  0.83232000  0.22759000  1
  Sb  Sb24  1  0.00066752  0.80724879  0.34558374  1
  Sb  Sb25  1  0.49960464  0.81343631  0.46851811  1
  Sb  Sb26  1  0.50000000  0.33232000  0.11379000  1
  Sb  Sb27  1  0.00000000  0.33232000  0.22759000  1
  Sb  Sb28  1  0.49985591  0.33004148  0.34454175  1
  Sb  Sb29  1  0.99931666  0.33671425  0.46774174  1
  Cl  Cl30  1  0.50011385  0.54403811  0.53127694  1
  O  O31  1  0.00000000  0.82836000  0.04494000  1
  O  O32  1  0.50000000  0.82836000  0.15874000  1
  O  O33  1  0.99980400  0.84474300  0.27065200  1
  O  O34  1  0.49915269  0.83295157  0.39273445  1
  O  O35  1  0.50000000  0.82836000  0.06885000  1
  O  O36  1  0.00000000  0.82836000  0.18264000  1
  O  O37  1  0.49950010  0.81081144  0.29877147  1
  O  O38  1  0.00024057  0.80636863  0.41957301  1
  O  O39  1  0.30253000  0.32836000  0.00000000  1
  O  O40  1  0.80253000  0.32836000  0.11379000  1
  O  O41  1  0.30253000  0.32836000  0.22759000  1
  O  O42  1  0.79846882  0.32416901  0.33653450  1
  O  O43  1  0.31333564  0.35605026  0.45951453  1
  O  O44  1  0.69747000  0.32836000  0.00000000  1
  O  O45  1  0.19747000  0.32836000  0.11379000  1
  O  O46  1  0.69747000  0.32836000  0.22759000  1
  O  O47  1  0.20104470  0.32414701  0.33652287  1
  O  O48  1  0.68528048  0.35591756  0.45943969  1
  O  O49  1  0.30253000  0.67164000  1.00000000  1
  O  O50  1  0.80253000  0.67164000  0.11379000  1
  O  O51  1  0.30253000  0.67164000  0.22759000  1
  O  O52  1  0.79916033  0.64764152  0.34416915  1
  O  O53  1  0.31061128  0.65634366  0.44852183  1
  O  O54  1  0.69747000  0.67164000  1.00000000  1
  O  O55  1  0.19747000  0.67164000  0.11379000  1
  O  O56  1  0.69747000  0.67164000  0.22759000  1
  O  O57  1  0.20088548  0.64677637  0.34405953  1
  O  O58  1  0.68858765  0.65669067  0.44841947  1
  O  O59  1  0.00000000  0.17164000  0.04494000  1
  O  O60  1  0.50000000  0.17164000  0.15874000  1
  O  O61  1  0.99978400  0.15531300  0.27066400  1
  O  O62  1  0.50008536  0.17933842  0.39496450  1
  O  O63  1  0.50000000  0.17164000  0.06885000  1
  O  O64  1  0.00000000  0.17164000  0.18264000  1
  O  O65  1  0.49986540  0.18197500  0.29040717  1
  O  O66  1  0.99931206  0.21489738  0.41116318  1
  O  O67  1  0.00000000  0.50000000  0.04332000  1
  O  O68  1  0.50000000  0.50000000  0.15711000  1
  O  O69  1  0.99950800  0.50002000  0.27169600  1
  O  O70  1  0.49999305  0.48969800  0.38978796  1
  O  O71  1  0.50000000  0.50000000  0.07048000  1
  O  O72  1  0.00000000  0.50000000  0.18427000  1
  O  O73  1  0.50040631  0.50092587  0.30085348  1
  O  O74  1  0.99976484  0.49789714  0.42320860  1
  O  O75  1  0.30966000  0.00000000  0.00000000  1
  O  O76  1  0.80966000  0.00000000  0.11379000  1
  O  O77  1  0.30966000  0.00000000  0.22759000  1
  O  O78  1  0.81919555  0.02569490  0.36305417  1
  O  O79  1  0.24257848  0.01278103  0.46424956  1
  O  O80  1  0.69034000  0.00000000  0.00000000  1
  O  O81  1  0.19034000  0.00000000  0.11379000  1
  O  O82  1  0.69034000  0.00000000  0.22759000  1
  O  O83  1  0.18128957  0.02593534  0.36313148  1
  O  O84  1  0.75216644  0.01103696  0.46325189  1
