# generated using pymatgen
data_MgTiMnVZnCrFeCoCuNiSb20ClO54
_symmetry_space_group_name_H-M   'P 1'
_cell_length_a   6.73229700
_cell_length_b   9.59849900
_cell_length_c   29.30310900
_cell_angle_alpha   90.11933800
_cell_angle_beta   89.89538600
_cell_angle_gamma   89.72664700
_symmetry_Int_Tables_number   1
_chemical_formula_structural   MgTiMnVZnCrFeCoCuNiSb20ClO54
_chemical_formula_sum
'Mg1 Ti1 Mn1 V1 Zn1 Cr1 Fe1 Co1 Cu1 Ni1 Sb20 Cl1 O54'
_cell_volume   1893.53647349
_cell_formula_units_Z   1
loop_
 _symmetry_equiv_pos_site_id
 _symmetry_equiv_pos_as_xyz
  1  'x, y, z'
loop_
 _atom_site_type_symbol
 _atom_site_label
 _atom_site_symmetry_multiplicity
 _atom_site_fract_x
 _atom_site_fract_y
 _atom_site_fract_z
 _atom_site_occupancy
  Mg  Mg0  1  0.00287015  0.67759174  0.44382199  1
  Ti  Ti1  1  0.50000000  0.50000000  0.00000000  1
  Mn  Mn2  1  0.49985818  0.66969364  0.33805897  1
  V  V3  1  0.96239717  0.02255150  0.43709166  1
  Zn  Zn4  1  0.55630461  0.20841938  0.45311061  1
  Cr  Cr5  1  0.50000000  0.66768000  0.11379000  1
  Fe  Fe6  1  0.00000000  0.66768000  0.22759000  1
  Co  Co7  1  0.51686622  0.50035244  0.44642294  1
  Cu  Cu8  1  0.99952215  0.17516589  0.33837330  1
  Ni  Ni9  1  0.50000000  1.00000000  0.11379000  1
  Sb  Sb10  1  0.00000000  0.00000000  0.00000000  1
  Sb  Sb11  1  1.00000000  0.00000000  0.22759000  1
  Sb  Sb12  1  0.49920045  0.99605951  0.34074341  1
  Sb  Sb13  1  0.00000000  0.50000000  0.11379000  1
  Sb  Sb14  1  0.50000000  0.50000000  0.22759000  1
  Sb  Sb15  1  0.99594684  0.50059160  0.33919949  1
  Sb  Sb16  1  0.00000000  0.33232000  0.00000000  1
  Sb  Sb17  1  0.50000000  0.33232000  0.11379000  1
  Sb  Sb18  1  0.00000000  0.33232000  0.22759000  1
  Sb  Sb19  1  0.49304377  0.34776879  0.35670833  1
  Sb  Sb20  1  0.02778016  0.35139536  0.44879213  1
  Sb  Sb21  1  0.50000000  0.83232000  0.00000000  1
  Sb  Sb22  1  0.00000000  0.83232000  0.11379000  1
  Sb  Sb23  1  0.50000000  0.83232000  0.22759000  1
  Sb  Sb24  1  0.00079735  0.83777503  0.33917260  1
  Sb  Sb25  1  0.49083044  0.80334907  0.45456845  1
  Sb  Sb26  1  0.50000000  0.16768000  0.00000000  1
  Sb  Sb27  1  0.00000000  0.16768000  0.11379000  1
  Sb  Sb28  1  0.50000000  0.16768000  0.22759000  1
  Sb  Sb29  1  0.00000000  0.66768000  0.00000000  1
  Cl  Cl30  1  0.51413048  0.40026978  0.51443158  1
  O  O31  1  0.00000000  0.17164000  0.04494000  1
  O  O32  1  0.50000000  0.17164000  0.15874000  1
  O  O33  1  0.00019600  0.15525700  0.27065200  1
  O  O34  1  0.49796211  0.14857793  0.38502753  1
  O  O35  1  0.50000000  0.17164000  0.06885000  1
  O  O36  1  0.00000000  0.17164000  0.18264000  1
  O  O37  1  0.49942799  0.16253041  0.29649478  1
  O  O38  1  0.01204811  0.18212806  0.40744578  1
  O  O39  1  0.69747000  0.67164000  0.00000000  1
  O  O40  1  0.19747000  0.67164000  0.11379000  1
  O  O41  1  0.69747000  0.67164000  0.22759000  1
  O  O42  1  0.19101716  0.67266528  0.33816059  1
  O  O43  1  0.70441349  0.66010892  0.45814919  1
  O  O44  1  0.30253000  0.67164000  0.00000000  1
  O  O45  1  0.80253000  0.67164000  0.11379000  1
  O  O46  1  0.30253000  0.67164000  0.22759000  1
  O  O47  1  0.80866980  0.67402645  0.33886683  1
  O  O48  1  0.30195789  0.64626606  0.45860797  1
  O  O49  1  0.69747000  0.32836000  0.00000000  1
  O  O50  1  0.19747000  0.32836000  0.11379000  1
  O  O51  1  0.69747000  0.32836000  0.22759000  1
  O  O52  1  0.19752153  0.34295350  0.33709201  1
  O  O53  1  0.71706265  0.36568417  0.43115596  1
  O  O54  1  0.30253000  0.32836000  0.00000000  1
  O  O55  1  0.80253000  0.32836000  0.11379000  1
  O  O56  1  0.30253000  0.32836000  0.22759000  1
  O  O57  1  0.79719566  0.34274844  0.33788105  1
  O  O58  1  0.34895258  0.35268947  0.42792368  1
  O  O59  1  1.00000000  0.82836000  0.04494000  1
  O  O60  1  0.50000000  0.82836000  0.15874000  1
  O  O61  1  0.00021600  0.84468700  0.27066400  1
  O  O62  1  0.49566812  0.82441699  0.38255395  1
  O  O63  1  0.50000000  0.82836000  0.06885000  1
  O  O64  1  1.00000000  0.82836000  0.18264000  1
  O  O65  1  0.50362823  0.83131017  0.29611030  1
  O  O66  1  0.99869409  0.85154702  0.40883843  1
  O  O67  1  1.00000000  0.50000000  0.04332000  1
  O  O68  1  0.50000000  0.50000000  0.15711000  1
  O  O69  1  0.00049200  0.49998000  0.27169600  1
  O  O70  1  0.51139482  0.54282757  0.38390209  1
  O  O71  1  0.50000000  0.50000000  0.07048000  1
  O  O72  1  0.00000000  0.50000000  0.18427000  1
  O  O73  1  0.49851116  0.51317856  0.29993537  1
  O  O74  1  0.02327035  0.51241369  0.40588071  1
  O  O75  1  0.69034000  0.00000000  0.00000000  1
  O  O76  1  0.19034000  0.00000000  0.11379000  1
  O  O77  1  0.69034000  0.00000000  0.22759000  1
  O  O78  1  0.19950605  0.99230615  0.33871710  1
  O  O79  1  0.72880972  0.04118491  0.45992577  1
  O  O80  1  0.30966000  0.00000000  0.00000000  1
  O  O81  1  0.80966000  0.00000000  0.11379000  1
  O  O82  1  0.30966000  0.00000000  0.22759000  1
  O  O83  1  0.80010655  0.99306721  0.34185251  1
  O  O84  1  0.11959254  0.01657337  0.47893525  1
