# generated using pymatgen
data_MgTiMnVZnCrFeCoCuNiSb20ClO54
_symmetry_space_group_name_H-M   'P 1'
_cell_length_a   6.69977700
_cell_length_b   9.58264100
_cell_length_c   29.32497100
_cell_angle_alpha   89.93435200
_cell_angle_beta   89.97249400
_cell_angle_gamma   89.99984300
_symmetry_Int_Tables_number   1
_chemical_formula_structural   MgTiMnVZnCrFeCoCuNiSb20ClO54
_chemical_formula_sum
'Mg1 Ti1 Mn1 V1 Zn1 Cr1 Fe1 Co1 Cu1 Ni1 Sb20 Cl1 O54'
_cell_volume   1882.70736703
_cell_formula_units_Z   1
loop_
 _symmetry_equiv_pos_site_id
 _symmetry_equiv_pos_as_xyz
  1  'x, y, z'
loop_
 _atom_site_type_symbol
 _atom_site_label
 _atom_site_symmetry_multiplicity
 _atom_site_fract_x
 _atom_site_fract_y
 _atom_site_fract_z
 _atom_site_occupancy
  Mg  Mg0  1  0.00348253  0.33285429  0.44062229  1
  Ti  Ti1  1  0.50000000  0.33232000  0.11379000  1
  Mn  Mn2  1  1.00000000  0.33232000  0.22759000  1
  V  V3  1  0.00000000  0.50000000  0.11379000  1
  Zn  Zn4  1  0.50087001  0.99646873  0.34180462  1
  Cr  Cr5  1  0.50030485  0.66783505  0.33971678  1
  Fe  Fe6  1  0.50259705  0.19905685  0.45063212  1
  Co  Co7  1  0.50332119  0.49389298  0.44697662  1
  Cu  Cu8  1  0.50000000  0.83232000  0.00000000  1
  Ni  Ni9  1  0.00000000  0.00000000  0.00000000  1
  Sb  Sb10  1  0.50000000  0.00000000  0.11379000  1
  Sb  Sb11  1  0.00000000  0.00000000  0.22759000  1
  Sb  Sb12  1  0.00247239  0.01337929  0.45998754  1
  Sb  Sb13  1  0.50000000  0.50000000  0.00000000  1
  Sb  Sb14  1  0.50000000  0.50000000  0.22759000  1
  Sb  Sb15  1  0.00020289  0.50542863  0.33998517  1
  Sb  Sb16  1  0.00000000  0.66768000  0.00000000  1
  Sb  Sb17  1  0.50000000  0.66768000  0.11379000  1
  Sb  Sb18  1  0.00000000  0.66768000  0.22759000  1
  Sb  Sb19  1  0.00115014  0.65780670  0.45676224  1
  Sb  Sb20  1  0.50000000  0.16768000  0.00000000  1
  Sb  Sb21  1  1.00000000  0.16768000  0.11379000  1
  Sb  Sb22  1  0.50000000  0.16768000  0.22759000  1
  Sb  Sb23  1  0.00051884  0.15586239  0.34029523  1
  Sb  Sb24  1  0.00000000  0.83232000  0.11379000  1
  Sb  Sb25  1  0.50000000  0.83232000  0.22759000  1
  Sb  Sb26  1  0.00209279  0.83292730  0.34330755  1
  Sb  Sb27  1  0.50326719  0.81072502  0.44860206  1
  Sb  Sb28  1  1.00000000  0.33232000  0.00000000  1
  Sb  Sb29  1  0.50006958  0.33180801  0.34288431  1
  Cl  Cl30  1  0.51339366  0.51335035  0.52079104  1
  O  O31  1  0.00000000  0.82836000  0.04494000  1
  O  O32  1  0.50000000  0.82836000  0.15874000  1
  O  O33  1  0.99980400  0.84474300  0.27065200  1
  O  O34  1  0.49590469  0.82429164  0.38106366  1
  O  O35  1  0.50000000  0.82836000  0.06885000  1
  O  O36  1  0.00000000  0.82836000  0.18264000  1
  O  O37  1  0.50212359  0.82527509  0.29444071  1
  O  O38  1  0.00337490  0.83168980  0.41235870  1
  O  O39  1  0.30253000  0.32836000  0.00000000  1
  O  O40  1  0.80253000  0.32836000  0.11379000  1
  O  O41  1  0.30253000  0.32836000  0.22759000  1
  O  O42  1  0.81219633  0.33249733  0.33962680  1
  O  O43  1  0.31780258  0.34385569  0.45008454  1
  O  O44  1  0.69747000  0.32836000  0.00000000  1
  O  O45  1  0.19747000  0.32836000  0.11379000  1
  O  O46  1  0.69747000  0.32836000  0.22759000  1
  O  O47  1  0.18822447  0.33237196  0.33850684  1
  O  O48  1  0.68761849  0.34355257  0.44868405  1
  O  O49  1  0.30253000  0.67164000  0.00000000  1
  O  O50  1  0.80253000  0.67164000  0.11379000  1
  O  O51  1  0.30253000  0.67164000  0.22759000  1
  O  O52  1  0.80463483  0.66996262  0.33749505  1
  O  O53  1  0.31134453  0.64827277  0.44393510  1
  O  O54  1  0.69747000  0.67164000  0.00000000  1
  O  O55  1  0.19747000  0.67164000  0.11379000  1
  O  O56  1  0.69747000  0.67164000  0.22759000  1
  O  O57  1  0.19670139  0.66951760  0.33682395  1
  O  O58  1  0.69480079  0.64829970  0.44142777  1
  O  O59  1  1.00000000  0.17164000  0.04494000  1
  O  O60  1  0.50000000  0.17164000  0.15874000  1
  O  O61  1  0.99978400  0.15531300  0.27066400  1
  O  O62  1  0.49835015  0.17059279  0.38272018  1
  O  O63  1  0.50000000  0.17164000  0.06885000  1
  O  O64  1  1.00000000  0.17164000  0.18264000  1
  O  O65  1  0.50227352  0.17276318  0.29559192  1
  O  O66  1  0.00553337  0.15667471  0.40754625  1
  O  O67  1  0.00000000  0.50000000  0.04332000  1
  O  O68  1  0.50000000  0.50000000  0.15711000  1
  O  O69  1  0.99950800  0.50002000  0.27169600  1
  O  O70  1  0.49732345  0.50225972  0.38141957  1
  O  O71  1  0.50000000  0.50000000  0.07048000  1
  O  O72  1  0.00000000  0.50000000  0.18427000  1
  O  O73  1  0.50188298  0.49938922  0.29778451  1
  O  O74  1  0.00590694  0.50842228  0.40743382  1
  O  O75  1  0.30966000  1.00000000  0.00000000  1
  O  O76  1  0.80966000  0.00000000  0.11379000  1
  O  O77  1  0.30966000  0.00000000  0.22759000  1
  O  O78  1  0.80873618  0.99274972  0.33984602  1
  O  O79  1  0.30133918  0.06995913  0.46290881  1
  O  O80  1  0.69034000  1.00000000  1.00000000  1
  O  O81  1  0.19034000  0.00000000  0.11379000  1
  O  O82  1  0.69034000  0.00000000  0.22759000  1
  O  O83  1  0.19317543  0.99323163  0.33897889  1
  O  O84  1  0.70473312  0.07110661  0.46275307  1
