# generated using pymatgen
data_MgTiMnVZnCrFeCoCuNiSb20ClO54
_symmetry_space_group_name_H-M   'P 1'
_cell_length_a   6.66067000
_cell_length_b   9.54034800
_cell_length_c   29.26332900
_cell_angle_alpha   89.71078500
_cell_angle_beta   89.95755100
_cell_angle_gamma   89.97335800
_symmetry_Int_Tables_number   1
_chemical_formula_structural   MgTiMnVZnCrFeCoCuNiSb20ClO54
_chemical_formula_sum
'Mg1 Ti1 Mn1 V1 Zn1 Cr1 Fe1 Co1 Cu1 Ni1 Sb20 Cl1 O54'
_cell_volume   1859.51705338
_cell_formula_units_Z   1
loop_
 _symmetry_equiv_pos_site_id
 _symmetry_equiv_pos_as_xyz
  1  'x, y, z'
loop_
 _atom_site_type_symbol
 _atom_site_label
 _atom_site_symmetry_multiplicity
 _atom_site_fract_x
 _atom_site_fract_y
 _atom_site_fract_z
 _atom_site_occupancy
  Mg  Mg0  1  1.00000000  0.33232000  0.77241000  1
  Ti  Ti1  1  1.00000000  0.66768000  1.00000000  1
  Mn  Mn2  1  0.50126500  0.98739900  0.65574900  1
  V  V3  1  0.50000000  0.33232000  0.88621000  1
  Zn  Zn4  1  0.00107800  0.17133500  0.66603500  1
  Cr  Cr5  1  1.00000000  0.50000000  0.88621000  1
  Fe  Fe6  1  0.99997700  0.81764400  0.66125000  1
  Co  Co7  1  0.49928600  0.49629900  0.55691500  1
  Cu  Cu8  1  0.50000000  0.16768000  1.00000000  1
  Ni  Ni9  1  0.50013500  0.67283500  0.66080700  1
  Sb  Sb10  1  0.00000000  0.00000000  0.00000000  1
  Sb  Sb11  1  0.50000000  0.00000000  0.88621000  1
  Sb  Sb12  1  1.00000000  0.00000000  0.77241000  1
  Sb  Sb13  1  0.99838500  0.00098800  0.58661000  1
  Sb  Sb14  1  0.50000000  0.50000000  1.00000000  1
  Sb  Sb15  1  0.50000000  0.50000000  0.77241000  1
  Sb  Sb16  1  0.99999800  0.50608200  0.66047700  1
  Sb  Sb17  1  0.50000000  0.66768000  0.88621000  1
  Sb  Sb18  1  1.00000000  0.66768000  0.77241000  1
  Sb  Sb19  1  0.99907400  0.65860100  0.54155600  1
  Sb  Sb20  1  1.00000000  0.16768000  0.88621000  1
  Sb  Sb21  1  0.50000000  0.16768000  0.77241000  1
  Sb  Sb22  1  0.50083500  0.17742100  0.54511300  1
  Sb  Sb23  1  0.50000000  0.83232000  1.00000000  1
  Sb  Sb24  1  1.00000000  0.83232000  0.88621000  1
  Sb  Sb25  1  0.50000000  0.83232000  0.77241000  1
  Sb  Sb26  1  0.49751200  0.81810100  0.54705400  1
  Sb  Sb27  1  1.00000000  0.33232000  1.00000000  1
  Sb  Sb28  1  0.50063900  0.33679700  0.65768600  1
  Sb  Sb29  1  0.00234600  0.33375700  0.54621700  1
  Cl  Cl30  1  0.49094500  0.47777700  0.48219800  1
  O  O31  1  1.00000000  0.82836000  0.95506000  1
  O  O32  1  0.50000000  0.82836000  0.84126000  1
  O  O33  1  0.00019600  0.84474300  0.72934800  1
  O  O34  1  0.50077200  0.83828400  0.61644900  1
  O  O35  1  0.50000000  0.82836000  0.93115000  1
  O  O36  1  1.00000000  0.82836000  0.81736000  1
  O  O37  1  0.49857900  0.84336100  0.70406600  1
  O  O38  1  0.99727200  0.79513800  0.59150500  1
  O  O39  1  0.69747000  0.32836000  1.00000000  1
  O  O40  1  0.19747000  0.32836000  0.88621000  1
  O  O41  1  0.69747000  0.32836000  0.77241000  1
  O  O42  1  0.19864100  0.34445100  0.66379200  1
  O  O43  1  0.68653200  0.34578800  0.56107500  1
  O  O44  1  0.30253000  0.32836000  1.00000000  1
  O  O45  1  0.80253000  0.32836000  0.88621000  1
  O  O46  1  0.30253000  0.32836000  0.77241000  1
  O  O47  1  0.80241100  0.34456300  0.66424000  1
  O  O48  1  0.31484300  0.34520900  0.56324900  1
  O  O49  1  0.69747000  0.67164000  1.00000000  1
  O  O50  1  0.19747000  0.67164000  0.88621000  1
  O  O51  1  0.69747000  0.67164000  0.77241000  1
  O  O52  1  0.18925200  0.67406500  0.66360500  1
  O  O53  1  0.68569900  0.64767100  0.55417600  1
  O  O54  1  0.30253000  0.67164000  1.00000000  1
  O  O55  1  0.80253000  0.67164000  0.88621000  1
  O  O56  1  0.30253000  0.67164000  0.77241000  1
  O  O57  1  0.81115300  0.67418700  0.66394900  1
  O  O58  1  0.31188400  0.64787200  0.55610800  1
  O  O59  1  1.00000000  0.17164000  0.95506000  1
  O  O60  1  0.50000000  0.17164000  0.84126000  1
  O  O61  1  0.00021600  0.15531300  0.72933600  1
  O  O62  1  0.50296100  0.15497700  0.61756700  1
  O  O63  1  0.50000000  0.17164000  0.93115000  1
  O  O64  1  1.00000000  0.17164000  0.81736000  1
  O  O65  1  0.49986100  0.15966000  0.70232800  1
  O  O66  1  0.99894600  0.20285400  0.59824300  1
  O  O67  1  1.00000000  0.50000000  0.95668000  1
  O  O68  1  0.50000000  0.50000000  0.84289000  1
  O  O69  1  0.00049200  0.50002000  0.72830400  1
  O  O70  1  0.50521900  0.51016600  0.61973000  1
  O  O71  1  0.50000000  0.50000000  0.92952000  1
  O  O72  1  1.00000000  0.50000000  0.81573000  1
  O  O73  1  0.49935000  0.50419900  0.70517600  1
  O  O74  1  0.99802300  0.50121900  0.58969600  1
  O  O75  1  0.69034000  1.00000000  0.00000000  1
  O  O76  1  0.19034000  0.00000000  0.88621000  1
  O  O77  1  0.69034000  1.00000000  0.77241000  1
  O  O78  1  0.18107800  0.98024900  0.64821300  1
  O  O79  1  0.75975500  0.01066400  0.54835400  1
  O  O80  1  0.30966000  0.00000000  1.00000000  1
  O  O81  1  0.80966000  1.00000000  0.88621000  1
  O  O82  1  0.30966000  0.00000000  0.77241000  1
  O  O83  1  0.81682800  0.98071000  0.64864800  1
  O  O84  1  0.23744600  0.01017700  0.54839800  1
