# generated using pymatgen
data_MgTiMnVZnCrFeCoCuNiSb20ClO54
_symmetry_space_group_name_H-M   'P 1'
_cell_length_a   6.62344700
_cell_length_b   9.71853100
_cell_length_c   29.39740000
_cell_angle_alpha   89.98632400
_cell_angle_beta   89.98496300
_cell_angle_gamma   89.99783100
_symmetry_Int_Tables_number   1
_chemical_formula_structural   MgTiMnVZnCrFeCoCuNiSb20ClO54
_chemical_formula_sum
'Mg1 Ti1 Mn1 V1 Zn1 Cr1 Fe1 Co1 Cu1 Ni1 Sb20 Cl1 O54'
_cell_volume   1892.31566201
_cell_formula_units_Z   1
loop_
 _symmetry_equiv_pos_site_id
 _symmetry_equiv_pos_as_xyz
  1  'x, y, z'
loop_
 _atom_site_type_symbol
 _atom_site_label
 _atom_site_symmetry_multiplicity
 _atom_site_fract_x
 _atom_site_fract_y
 _atom_site_fract_z
 _atom_site_occupancy
  Mg  Mg0  1  0.50000000  0.16768000  0.77241000  1
  Ti  Ti1  1  0.99921125  0.97990685  0.55363840  1
  Mn  Mn2  1  0.00018883  0.64426801  0.55973810  1
  V  V3  1  0.00000000  0.00000000  0.00000000  1
  Zn  Zn4  1  0.99959039  0.34302800  0.55994531  1
  Cr  Cr5  1  0.50000000  1.00000000  0.88621000  1
  Fe  Fe6  1  1.00000000  0.50000000  0.88621000  1
  Co  Co7  1  0.50018727  0.51312910  0.54869871  1
  Cu  Cu8  1  0.00004833  0.50280097  0.66178901  1
  Ni  Ni9  1  0.49952786  0.81620159  0.54475513  1
  Sb  Sb10  1  1.00000000  0.00000000  0.77241000  1
  Sb  Sb11  1  0.49987383  0.00275367  0.65654861  1
  Sb  Sb12  1  0.50000000  0.50000000  0.00000000  1
  Sb  Sb13  1  0.50000000  0.50000000  0.77241000  1
  Sb  Sb14  1  1.00000000  0.66768000  0.00000000  1
  Sb  Sb15  1  0.50000000  0.66768000  0.88621000  1
  Sb  Sb16  1  1.00000000  0.66768000  0.77241000  1
  Sb  Sb17  1  0.50010634  0.66821839  0.65332760  1
  Sb  Sb18  1  0.50000000  0.16768000  0.00000000  1
  Sb  Sb19  1  1.00000000  0.16768000  0.88621000  1
  Sb  Sb20  1  0.99987685  0.17335149  0.65533051  1
  Sb  Sb21  1  0.49927491  0.20674412  0.53621039  1
  Sb  Sb22  1  0.50000000  0.83232000  0.00000000  1
  Sb  Sb23  1  1.00000000  0.83232000  0.88621000  1
  Sb  Sb24  1  0.50000000  0.83232000  0.77241000  1
  Sb  Sb25  1  0.00007408  0.82556614  0.65869770  1
  Sb  Sb26  1  0.00000000  0.33232000  0.00000000  1
  Sb  Sb27  1  0.50000000  0.33232000  0.88621000  1
  Sb  Sb28  1  1.00000000  0.33232000  0.77241000  1
  Sb  Sb29  1  0.49990133  0.33103080  0.65558346  1
  Cl  Cl30  1  0.50053833  0.50692215  0.47563230  1
  O  O31  1  1.00000000  0.82836000  0.95506000  1
  O  O32  1  0.50000000  0.82836000  0.84126000  1
  O  O33  1  0.00019600  0.84474300  0.72934800  1
  O  O34  1  0.50000340  0.84008719  0.61308157  1
  O  O35  1  0.50000000  0.82836000  0.93115000  1
  O  O36  1  1.00000000  0.82836000  0.81736000  1
  O  O37  1  0.50039705  0.83622694  0.70271527  1
  O  O38  1  0.00125366  0.82521431  0.59302060  1
  O  O39  1  0.69747000  0.32836000  0.00000000  1
  O  O40  1  0.19747000  0.32836000  0.88621000  1
  O  O41  1  0.69747000  0.32836000  0.77241000  1
  O  O42  1  0.19893260  0.32845502  0.66002926  1
  O  O43  1  0.69937357  0.35497402  0.54987893  1
  O  O44  1  0.30253000  0.32836000  0.00000000  1
  O  O45  1  0.80253000  0.32836000  0.88621000  1
  O  O46  1  0.30253000  0.32836000  0.77241000  1
  O  O47  1  0.80084135  0.32837735  0.65999523  1
  O  O48  1  0.30005781  0.35550142  0.54977053  1
  O  O49  1  0.69747000  0.67164000  0.00000000  1
  O  O50  1  0.19747000  0.67164000  0.88621000  1
  O  O51  1  0.69747000  0.67164000  0.77241000  1
  O  O52  1  0.20151129  0.67586283  0.66553988  1
  O  O53  1  0.70438727  0.65447191  0.55100603  1
  O  O54  1  0.30253000  0.67164000  0.00000000  1
  O  O55  1  0.80253000  0.67164000  0.88621000  1
  O  O56  1  0.30253000  0.67164000  0.77241000  1
  O  O57  1  0.79881721  0.67563482  0.66529892  1
  O  O58  1  0.29661914  0.65468030  0.55089136  1
  O  O59  1  1.00000000  0.17164000  0.95506000  1
  O  O60  1  0.50000000  0.17164000  0.84126000  1
  O  O61  1  0.00021600  0.15531300  0.72933600  1
  O  O62  1  0.49916899  0.16279383  0.61022052  1
  O  O63  1  0.50000000  0.17164000  0.93115000  1
  O  O64  1  1.00000000  0.17164000  0.81736000  1
  O  O65  1  0.49999980  0.16347449  0.69934568  1
  O  O66  1  0.00013688  0.15278466  0.58739450  1
  O  O67  1  1.00000000  0.50000000  0.95668000  1
  O  O68  1  0.50000000  0.50000000  0.84289000  1
  O  O69  1  0.00049200  0.50002000  0.72830400  1
  O  O70  1  0.49998657  0.50108247  0.61373423  1
  O  O71  1  0.50000000  0.50000000  0.92952000  1
  O  O72  1  1.00000000  0.50000000  0.81573000  1
  O  O73  1  0.49995684  0.50183151  0.69979371  1
  O  O74  1  0.00066793  0.50445798  0.59748316  1
  O  O75  1  0.69034000  0.00000000  0.00000000  1
  O  O76  1  0.19034000  1.00000000  0.88621000  1
  O  O77  1  0.69034000  0.00000000  0.77241000  1
  O  O78  1  0.19154384  0.99741883  0.65976504  1
  O  O79  1  0.74997494  0.94941115  0.53189030  1
  O  O80  1  0.30966000  1.00000000  0.00000000  1
  O  O81  1  0.80966000  0.00000000  0.88621000  1
  O  O82  1  0.30966000  1.00000000  0.77241000  1
  O  O83  1  0.80830756  0.99728628  0.65947658  1
  O  O84  1  0.24769222  0.94942895  0.53164029  1
