# generated using pymatgen
data_MgTiMnVZnCrFeCoCuNiSb20ClO54
_symmetry_space_group_name_H-M   'P 1'
_cell_length_a   6.60648900
_cell_length_b   9.61079100
_cell_length_c   29.06867800
_cell_angle_alpha   90.28639600
_cell_angle_beta   89.93548700
_cell_angle_gamma   89.99765400
_symmetry_Int_Tables_number   1
_chemical_formula_structural   MgTiMnVZnCrFeCoCuNiSb20ClO54
_chemical_formula_sum
'Mg1 Ti1 Mn1 V1 Zn1 Cr1 Fe1 Co1 Cu1 Ni1 Sb20 Cl1 O54'
_cell_volume   1845.65034860
_cell_formula_units_Z   1
loop_
 _symmetry_equiv_pos_site_id
 _symmetry_equiv_pos_as_xyz
  1  'x, y, z'
loop_
 _atom_site_type_symbol
 _atom_site_label
 _atom_site_symmetry_multiplicity
 _atom_site_fract_x
 _atom_site_fract_y
 _atom_site_fract_z
 _atom_site_occupancy
  Mg  Mg0  1  0.00000000  0.33232000  0.22759000  1
  Ti  Ti1  1  0.49851731  0.81286930  0.44713479  1
  Mn  Mn2  1  0.00000000  0.83232000  0.11379000  1
  V  V3  1  0.00000000  0.33232000  1.00000000  1
  Zn  Zn4  1  0.49967044  0.66482890  0.34213197  1
  Cr  Cr5  1  0.50005008  0.35282147  0.34037399  1
  Fe  Fe6  1  0.50000000  0.83232000  1.00000000  1
  Co  Co7  1  0.49916117  0.49745163  0.44468146  1
  Cu  Cu8  1  0.00000000  0.00000000  0.00000000  1
  Ni  Ni9  1  0.00000000  0.50000000  0.11379000  1
  Sb  Sb10  1  0.50000000  1.00000000  0.11379000  1
  Sb  Sb11  1  1.00000000  0.00000000  0.22759000  1
  Sb  Sb12  1  0.49992726  0.99930313  0.34062594  1
  Sb  Sb13  1  0.99758702  0.98916265  0.48432921  1
  Sb  Sb14  1  0.50000000  0.50000000  1.00000000  1
  Sb  Sb15  1  0.50000000  0.50000000  0.22759000  1
  Sb  Sb16  1  0.99990122  0.50567105  0.33954834  1
  Sb  Sb17  1  0.50000000  0.33232000  0.11379000  1
  Sb  Sb18  1  0.99897876  0.35271153  0.46380868  1
  Sb  Sb19  1  0.50000000  0.83232000  0.22759000  1
  Sb  Sb20  1  0.99979721  0.82896564  0.34426079  1
  Sb  Sb21  1  0.50000000  0.16768000  1.00000000  1
  Sb  Sb22  1  0.00000000  0.16768000  0.11379000  1
  Sb  Sb23  1  0.50000000  0.16768000  0.22759000  1
  Sb  Sb24  1  0.99991716  0.17803248  0.34322561  1
  Sb  Sb25  1  0.49571890  0.18887171  0.45340175  1
  Sb  Sb26  1  0.00000000  0.66768000  1.00000000  1
  Sb  Sb27  1  0.50000000  0.66768000  0.11379000  1
  Sb  Sb28  1  0.00000000  0.66768000  0.22759000  1
  Sb  Sb29  1  0.99939844  0.67256524  0.45519991  1
  Cl  Cl30  1  0.49713142  0.47450760  0.52070509  1
  O  O31  1  0.00000000  0.17164000  0.04494000  1
  O  O32  1  0.50000000  0.17164000  0.15874000  1
  O  O33  1  0.00019600  0.15525700  0.27065200  1
  O  O34  1  0.49893692  0.16545705  0.38302659  1
  O  O35  1  0.50000000  0.17164000  0.06885000  1
  O  O36  1  0.00000000  0.17164000  0.18264000  1
  O  O37  1  0.49989425  0.16523541  0.29749149  1
  O  O38  1  0.00508049  0.15362061  0.44171905  1
  O  O39  1  0.69747000  0.67164000  1.00000000  1
  O  O40  1  0.19747000  0.67164000  0.11379000  1
  O  O41  1  0.69747000  0.67164000  0.22759000  1
  O  O42  1  0.19196319  0.66964798  0.33928771  1
  O  O43  1  0.68083985  0.65212903  0.44798838  1
  O  O44  1  0.30253000  0.67164000  1.00000000  1
  O  O45  1  0.80253000  0.67164000  0.11379000  1
  O  O46  1  0.30253000  0.67164000  0.22759000  1
  O  O47  1  0.80735019  0.66963064  0.33934108  1
  O  O48  1  0.31753406  0.65079877  0.44738136  1
  O  O49  1  0.69747000  0.32836000  1.00000000  1
  O  O50  1  0.19747000  0.32836000  0.11379000  1
  O  O51  1  0.69747000  0.32836000  0.22759000  1
  O  O52  1  0.20195486  0.34925141  0.33702112  1
  O  O53  1  0.69437412  0.34469467  0.44160116  1
  O  O54  1  0.30253000  0.32836000  1.00000000  1
  O  O55  1  0.80253000  0.32836000  0.11379000  1
  O  O56  1  0.30253000  0.32836000  0.22759000  1
  O  O57  1  0.79816471  0.34901069  0.33710380  1
  O  O58  1  0.30295822  0.34696271  0.44084979  1
  O  O59  1  0.00000000  0.82836000  0.04494000  1
  O  O60  1  0.50000000  0.82836000  0.15874000  1
  O  O61  1  0.00021600  0.84468700  0.27066400  1
  O  O62  1  0.49759205  0.84363031  0.38410402  1
  O  O63  1  0.50000000  0.82836000  0.06885000  1
  O  O64  1  0.00000000  0.82836000  0.18264000  1
  O  O65  1  0.50225717  0.83958037  0.29538700  1
  O  O66  1  0.99953262  0.83330669  0.41119147  1
  O  O67  1  0.00000000  0.50000000  0.04332000  1
  O  O68  1  0.50000000  0.50000000  0.15711000  1
  O  O69  1  0.00049200  0.49998000  0.27169600  1
  O  O70  1  0.50113301  0.49620284  0.38114592  1
  O  O71  1  0.50000000  0.50000000  0.07048000  1
  O  O72  1  0.00000000  0.50000000  0.18427000  1
  O  O73  1  0.49997937  0.50170512  0.29546414  1
  O  O74  1  0.99816237  0.50336228  0.41017628  1
  O  O75  1  0.69034000  0.00000000  1.00000000  1
  O  O76  1  0.19034000  1.00000000  0.11379000  1
  O  O77  1  0.69034000  0.00000000  0.22759000  1
  O  O78  1  0.19837303  0.98601991  0.33789294  1
  O  O79  1  0.70909231  0.93532211  0.46518672  1
  O  O80  1  0.30966000  0.00000000  1.00000000  1
  O  O81  1  0.80966000  1.00000000  0.11379000  1
  O  O82  1  0.30966000  0.00000000  0.22759000  1
  O  O83  1  0.80142419  0.98587789  0.33817706  1
  O  O84  1  0.28649924  0.93159831  0.46573747  1
