# generated using pymatgen
data_MgTiMnVZnCrFeCoCuNiSb20ClO54
_symmetry_space_group_name_H-M   'P 1'
_cell_length_a   6.65230900
_cell_length_b   9.67438400
_cell_length_c   29.73346600
_cell_angle_alpha   90.04462400
_cell_angle_beta   89.99892100
_cell_angle_gamma   89.97411700
_symmetry_Int_Tables_number   1
_chemical_formula_structural   MgTiMnVZnCrFeCoCuNiSb20ClO54
_chemical_formula_sum
'Mg1 Ti1 Mn1 V1 Zn1 Cr1 Fe1 Co1 Cu1 Ni1 Sb20 Cl1 O54'
_cell_volume   1913.55565017
_cell_formula_units_Z   1
loop_
 _symmetry_equiv_pos_site_id
 _symmetry_equiv_pos_as_xyz
  1  'x, y, z'
loop_
 _atom_site_type_symbol
 _atom_site_label
 _atom_site_symmetry_multiplicity
 _atom_site_fract_x
 _atom_site_fract_y
 _atom_site_fract_z
 _atom_site_occupancy
  Mg  Mg0  1  0.00000000  0.83232000  0.88621000  1
  Ti  Ti1  1  0.99624090  0.33272155  0.55443512  1
  Mn  Mn2  1  0.00033070  0.66856145  0.56397295  1
  V  V3  1  0.49652054  0.18747735  0.54957808  1
  Zn  Zn4  1  0.99830126  0.15729310  0.65903557  1
  Cr  Cr5  1  0.99896564  0.84519245  0.65814591  1
  Fe  Fe6  1  0.50000000  0.16768000  0.00000000  1
  Co  Co7  1  0.50112339  0.48947580  0.54510808  1
  Cu  Cu8  1  0.50000000  0.50000000  0.00000000  1
  Ni  Ni9  1  0.00000000  0.33232000  0.00000000  1
  Sb  Sb10  1  0.00000000  0.00000000  0.00000000  1
  Sb  Sb11  1  0.50000000  0.00000000  0.88621000  1
  Sb  Sb12  1  0.00000000  0.00000000  0.77241000  1
  Sb  Sb13  1  0.49849855  0.99278496  0.65441117  1
  Sb  Sb14  1  0.99931750  0.00434302  0.54477453  1
  Sb  Sb15  1  0.00000000  0.50000000  0.88621000  1
  Sb  Sb16  1  0.50000000  0.50000000  0.77241000  1
  Sb  Sb17  1  0.00009095  0.49878935  0.65878462  1
  Sb  Sb18  1  0.00000000  0.66768000  0.00000000  1
  Sb  Sb19  1  0.50000000  0.66768000  0.88621000  1
  Sb  Sb20  1  0.00000000  0.66768000  0.77241000  1
  Sb  Sb21  1  0.49954078  0.66338010  0.65005398  1
  Sb  Sb22  1  0.00000000  0.16768000  0.88621000  1
  Sb  Sb23  1  0.50000000  0.16768000  0.77241000  1
  Sb  Sb24  1  0.50000000  0.83232000  0.00000000  1
  Sb  Sb25  1  0.50000000  0.83232000  0.77241000  1
  Sb  Sb26  1  0.50008310  0.78355696  0.53586042  1
  Sb  Sb27  1  0.50000000  0.33232000  0.88621000  1
  Sb  Sb28  1  0.00000000  0.33232000  0.77241000  1
  Sb  Sb29  1  0.49973253  0.33665942  0.65780160  1
  Cl  Cl30  1  0.50211625  0.53711143  0.47337479  1
  O  O31  1  1.00000000  0.82836000  0.95506000  1
  O  O32  1  0.50000000  0.82836000  0.84126000  1
  O  O33  1  0.00019600  0.84474300  0.72934800  1
  O  O34  1  0.49876476  0.82329144  0.60602734  1
  O  O35  1  0.50000000  0.82836000  0.93115000  1
  O  O36  1  0.00000000  0.82836000  0.81736000  1
  O  O37  1  0.49866981  0.81842877  0.69792511  1
  O  O38  1  0.99876986  0.85309411  0.59080687  1
  O  O39  1  0.69747000  0.32836000  0.00000000  1
  O  O40  1  0.19747000  0.32836000  0.88621000  1
  O  O41  1  0.69747000  0.32836000  0.77241000  1
  O  O42  1  0.19680352  0.33590131  0.66082512  1
  O  O43  1  0.71075338  0.34143857  0.53987188  1
  O  O44  1  0.30253000  0.32836000  0.00000000  1
  O  O45  1  0.80253000  0.32836000  0.88621000  1
  O  O46  1  0.30253000  0.32836000  0.77241000  1
  O  O47  1  0.80282591  0.33700305  0.66117103  1
  O  O48  1  0.29256562  0.33716865  0.53953004  1
  O  O49  1  0.69747000  0.67164000  0.00000000  1
  O  O50  1  0.19747000  0.67164000  0.88621000  1
  O  O51  1  0.69747000  0.67164000  0.77241000  1
  O  O52  1  0.18996671  0.66997780  0.65462069  1
  O  O53  1  0.70657109  0.63907818  0.55137456  1
  O  O54  1  0.30253000  0.67164000  0.00000000  1
  O  O55  1  0.80253000  0.67164000  0.88621000  1
  O  O56  1  0.30253000  0.67164000  0.77241000  1
  O  O57  1  0.80872324  0.66960738  0.65486742  1
  O  O58  1  0.29364257  0.63875762  0.55090111  1
  O  O59  1  1.00000000  0.17164000  0.95506000  1
  O  O60  1  0.50000000  0.17164000  0.84126000  1
  O  O61  1  0.00021600  0.15531300  0.72933600  1
  O  O62  1  0.50438947  0.18777047  0.60923028  1
  O  O63  1  0.50000000  0.17164000  0.93115000  1
  O  O64  1  1.00000000  0.17164000  0.81736000  1
  O  O65  1  0.49977268  0.17104733  0.70354947  1
  O  O66  1  0.99551996  0.17429834  0.58667365  1
  O  O67  1  0.00000000  0.50000000  0.95668000  1
  O  O68  1  0.50000000  0.50000000  0.84289000  1
  O  O69  1  0.00049200  0.50002000  0.72830400  1
  O  O70  1  0.49853539  0.48925934  0.61058781  1
  O  O71  1  0.50000000  0.50000000  0.92952000  1
  O  O72  1  0.00000000  0.50000000  0.81573000  1
  O  O73  1  0.49838698  0.51061158  0.69657402  1
  O  O74  1  0.00071040  0.48171032  0.59060202  1
  O  O75  1  0.69034000  1.00000000  0.00000000  1
  O  O76  1  0.19034000  0.00000000  0.88621000  1
  O  O77  1  0.69034000  0.00000000  0.77241000  1
  O  O78  1  0.18792682  0.99062742  0.65960496  1
  O  O79  1  0.68699790  0.06667649  0.53853430  1
  O  O80  1  0.30966000  1.00000000  1.00000000  1
  O  O81  1  0.80966000  0.00000000  0.88621000  1
  O  O82  1  0.30966000  0.00000000  0.77241000  1
  O  O83  1  0.80848152  0.99034596  0.65941835  1
  O  O84  1  0.30949683  0.06072420  0.54241171  1
