# generated using pymatgen
data_MgTiMnVZnCrFeCoCuNiSb20ClO54
_symmetry_space_group_name_H-M   'P 1'
_cell_length_a   6.58705800
_cell_length_b   9.64731500
_cell_length_c   28.68290000
_cell_angle_alpha   89.84321400
_cell_angle_beta   89.97490900
_cell_angle_gamma   89.99502000
_symmetry_Int_Tables_number   1
_chemical_formula_structural   MgTiMnVZnCrFeCoCuNiSb20ClO54
_chemical_formula_sum
'Mg1 Ti1 Mn1 V1 Zn1 Cr1 Fe1 Co1 Cu1 Ni1 Sb20 Cl1 O54'
_cell_volume   1822.71738625
_cell_formula_units_Z   1
loop_
 _symmetry_equiv_pos_site_id
 _symmetry_equiv_pos_as_xyz
  1  'x, y, z'
loop_
 _atom_site_type_symbol
 _atom_site_label
 _atom_site_symmetry_multiplicity
 _atom_site_fract_x
 _atom_site_fract_y
 _atom_site_fract_z
 _atom_site_occupancy
  Mg  Mg0  1  0.00000000  0.00000000  0.00000000  1
  Ti  Ti1  1  0.00000000  0.66768000  0.77241000  1
  Mn  Mn2  1  0.50000000  0.50000000  0.77241000  1
  V  V3  1  0.50000000  0.66768000  0.88621000  1
  Zn  Zn4  1  0.50000000  0.83232000  0.77241000  1
  Cr  Cr5  1  0.00000000  0.66768000  0.00000000  1
  Fe  Fe6  1  0.50151204  0.17589501  0.54464530  1
  Co  Co7  1  0.50217278  0.48929723  0.54494728  1
  Cu  Cu8  1  0.00000000  0.33232000  0.00000000  1
  Ni  Ni9  1  0.00000000  0.83232000  0.88621000  1
  Sb  Sb10  1  0.50000000  0.00000000  0.88621000  1
  Sb  Sb11  1  0.00000000  0.00000000  0.77241000  1
  Sb  Sb12  1  0.50017711  0.99531557  0.65524074  1
  Sb  Sb13  1  0.00141869  0.00007637  0.53017532  1
  Sb  Sb14  1  0.50000000  0.50000000  0.00000000  1
  Sb  Sb15  1  0.00000000  0.50000000  0.88621000  1
  Sb  Sb16  1  0.00326468  0.49871164  0.65563132  1
  Sb  Sb17  1  0.50000000  0.33232000  0.88621000  1
  Sb  Sb18  1  0.00000000  0.33232000  0.77241000  1
  Sb  Sb19  1  0.50116825  0.33425757  0.65944905  1
  Sb  Sb20  1  0.00234789  0.33541293  0.52137894  1
  Sb  Sb21  1  0.50000000  0.83232000  0.00000000  1
  Sb  Sb22  1  0.00008231  0.83804560  0.65754707  1
  Sb  Sb23  1  0.50229775  0.81465309  0.53490716  1
  Sb  Sb24  1  0.50000000  0.16768000  0.00000000  1
  Sb  Sb25  1  0.00000000  0.16768000  0.88621000  1
  Sb  Sb26  1  0.50000000  0.16768000  0.77241000  1
  Sb  Sb27  1  0.00002792  0.17400535  0.64678695  1
  Sb  Sb28  1  0.50087550  0.66646397  0.65556770  1
  Sb  Sb29  1  0.00091777  0.66489938  0.53374169  1
  Cl  Cl30  1  0.50675592  0.52571081  0.46985646  1
  O  O31  1  0.00000000  0.17164000  0.95506000  1
  O  O32  1  0.50000000  0.17164000  0.84126000  1
  O  O33  1  0.99980400  0.15525700  0.72934800  1
  O  O34  1  0.50075493  0.16962866  0.61542022  1
  O  O35  1  0.50000000  0.17164000  0.93115000  1
  O  O36  1  0.00000000  0.17164000  0.81736000  1
  O  O37  1  0.50429810  0.15945424  0.70238692  1
  O  O38  1  0.00189630  0.17756214  0.56766460  1
  O  O39  1  0.30253000  0.67164000  0.00000000  1
  O  O40  1  0.80253000  0.67164000  0.88621000  1
  O  O41  1  0.30253000  0.67164000  0.77241000  1
  O  O42  1  0.80465916  0.68211384  0.65941741  1
  O  O43  1  0.31123163  0.65116449  0.55340088  1
  O  O44  1  0.69747000  0.67164000  0.00000000  1
  O  O45  1  0.19747000  0.67164000  0.88621000  1
  O  O46  1  0.69747000  0.67164000  0.77241000  1
  O  O47  1  0.19779093  0.68409572  0.65957596  1
  O  O48  1  0.69181162  0.65067144  0.55421046  1
  O  O49  1  0.30253000  0.32836000  0.00000000  1
  O  O50  1  0.80253000  0.32836000  0.88621000  1
  O  O51  1  0.30253000  0.32836000  0.77241000  1
  O  O52  1  0.79377400  0.32882179  0.67007301  1
  O  O53  1  0.32439366  0.33070648  0.54013479  1
  O  O54  1  0.69747000  0.32836000  0.00000000  1
  O  O55  1  0.19747000  0.32836000  0.88621000  1
  O  O56  1  0.69747000  0.32836000  0.77241000  1
  O  O57  1  0.20897124  0.32503088  0.67066836  1
  O  O58  1  0.67921708  0.33040415  0.54053689  1
  O  O59  1  0.00000000  0.82836000  0.95506000  1
  O  O60  1  0.50000000  0.82836000  0.84126000  1
  O  O61  1  0.99978400  0.84468700  0.72933600  1
  O  O62  1  0.50042876  0.84139329  0.60767563  1
  O  O63  1  0.50000000  0.82836000  0.93115000  1
  O  O64  1  0.00000000  0.82836000  0.81736000  1
  O  O65  1  0.50065586  0.83674922  0.69846155  1
  O  O66  1  0.00031853  0.84105010  0.58262822  1
  O  O67  1  0.00000000  0.50000000  0.95668000  1
  O  O68  1  0.50000000  0.50000000  0.84289000  1
  O  O69  1  0.99950800  0.49998000  0.72830400  1
  O  O70  1  0.49905721  0.48403918  0.61192310  1
  O  O71  1  0.50000000  0.50000000  0.92952000  1
  O  O72  1  0.00000000  0.50000000  0.81573000  1
  O  O73  1  0.49871154  0.50028845  0.70344705  1
  O  O74  1  0.00140405  0.48538877  0.56918878  1
  O  O75  1  0.30966000  0.00000000  1.00000000  1
  O  O76  1  0.80966000  0.00000000  0.88621000  1
  O  O77  1  0.30966000  0.00000000  0.77241000  1
  O  O78  1  0.80051825  0.99331631  0.65667275  1
  O  O79  1  0.31267494  0.03068695  0.54000770  1
  O  O80  1  0.69034000  0.00000000  1.00000000  1
  O  O81  1  0.19034000  0.00000000  0.88621000  1
  O  O82  1  0.69034000  0.00000000  0.77241000  1
  O  O83  1  0.19975593  0.99390912  0.65664020  1
  O  O84  1  0.69002654  0.03120722  0.54026655  1
