# generated using pymatgen
data_MgTiMnVZnCrFeCoCuNiSb20ClO54
_symmetry_space_group_name_H-M   'P 1'
_cell_length_a   6.70071800
_cell_length_b   9.52032100
_cell_length_c   29.80479100
_cell_angle_alpha   90.11750400
_cell_angle_beta   89.97974700
_cell_angle_gamma   89.91327000
_symmetry_Int_Tables_number   1
_chemical_formula_structural   MgTiMnVZnCrFeCoCuNiSb20ClO54
_chemical_formula_sum
'Mg1 Ti1 Mn1 V1 Zn1 Cr1 Fe1 Co1 Cu1 Ni1 Sb20 Cl1 O54'
_cell_volume   1901.33032603
_cell_formula_units_Z   1
loop_
 _symmetry_equiv_pos_site_id
 _symmetry_equiv_pos_as_xyz
  1  'x, y, z'
loop_
 _atom_site_type_symbol
 _atom_site_label
 _atom_site_symmetry_multiplicity
 _atom_site_fract_x
 _atom_site_fract_y
 _atom_site_fract_z
 _atom_site_occupancy
  Mg  Mg0  1  0.51092306  0.18694832  0.55539068  1
  Ti  Ti1  1  0.00020257  0.17441037  0.67089271  1
  Mn  Mn2  1  0.99617380  0.01919882  0.57090673  1
  V  V3  1  0.50000000  0.16768000  1.00000000  1
  Zn  Zn4  1  1.00000000  0.33232000  0.77241000  1
  Cr  Cr5  1  0.49967679  0.32770304  0.66234763  1
  Fe  Fe6  1  0.50000000  0.83232000  1.00000000  1
  Co  Co7  1  0.50140500  0.49558922  0.55629551  1
  Cu  Cu8  1  0.00000000  0.00000000  0.77241000  1
  Ni  Ni9  1  0.50000000  0.50000000  1.00000000  1
  Sb  Sb10  1  0.00000000  0.00000000  0.00000000  1
  Sb  Sb11  1  0.50000000  0.00000000  0.88621000  1
  Sb  Sb12  1  0.49900966  0.00603504  0.66056995  1
  Sb  Sb13  1  1.00000000  0.50000000  0.88621000  1
  Sb  Sb14  1  0.50000000  0.50000000  0.77241000  1
  Sb  Sb15  1  0.99943286  0.48204797  0.65945764  1
  Sb  Sb16  1  0.00000000  0.66768000  1.00000000  1
  Sb  Sb17  1  0.50000000  0.66768000  0.88621000  1
  Sb  Sb18  1  0.00000000  0.66768000  0.77241000  1
  Sb  Sb19  1  0.49897737  0.65924252  0.65276415  1
  Sb  Sb20  1  0.00116624  0.67272605  0.54807442  1
  Sb  Sb21  1  0.00000000  0.16768000  0.88621000  1
  Sb  Sb22  1  0.50000000  0.16768000  0.77241000  1
  Sb  Sb23  1  1.00000000  0.83232000  0.88621000  1
  Sb  Sb24  1  0.50000000  0.83232000  0.77241000  1
  Sb  Sb25  1  0.99881677  0.83633058  0.66273501  1
  Sb  Sb26  1  0.49865196  0.81279363  0.54452879  1
  Sb  Sb27  1  0.00000000  0.33232000  1.00000000  1
  Sb  Sb28  1  0.50000000  0.33232000  0.88621000  1
  Sb  Sb29  1  0.00475455  0.32687532  0.54308893  1
  Cl  Cl30  1  0.49566168  0.55874668  0.48509346  1
  O  O31  1  0.00000000  0.82836000  0.95506000  1
  O  O32  1  0.50000000  0.82836000  0.84126000  1
  O  O33  1  0.00019600  0.84474300  0.72934800  1
  O  O34  1  0.50018851  0.84681007  0.61619393  1
  O  O35  1  0.50000000  0.82836000  0.93115000  1
  O  O36  1  1.00000000  0.82836000  0.81736000  1
  O  O37  1  0.49853488  0.83219862  0.70250916  1
  O  O38  1  0.99484993  0.82740518  0.59535617  1
  O  O39  1  0.69747000  0.32836000  1.00000000  1
  O  O40  1  0.19747000  0.32836000  0.88621000  1
  O  O41  1  0.69747000  0.32836000  0.77241000  1
  O  O42  1  0.20433985  0.31453499  0.66552682  1
  O  O43  1  0.69231131  0.35126596  0.54767942  1
  O  O44  1  0.30253000  0.32836000  1.00000000  1
  O  O45  1  0.80253000  0.32836000  0.88621000  1
  O  O46  1  0.30253000  0.32836000  0.77241000  1
  O  O47  1  0.79513400  0.31433657  0.66574600  1
  O  O48  1  0.31605009  0.34648813  0.54873091  1
  O  O49  1  0.69747000  0.67164000  1.00000000  1
  O  O50  1  0.19747000  0.67164000  0.88621000  1
  O  O51  1  0.69747000  0.67164000  0.77241000  1
  O  O52  1  0.19936198  0.67701946  0.66303796  1
  O  O53  1  0.68600560  0.65639116  0.56650791  1
  O  O54  1  0.30253000  0.67164000  1.00000000  1
  O  O55  1  0.80253000  0.67164000  0.88621000  1
  O  O56  1  0.30253000  0.67164000  0.77241000  1
  O  O57  1  0.79812185  0.67708051  0.66349178  1
  O  O58  1  0.31401450  0.65706532  0.56752815  1
  O  O59  1  0.00000000  0.17164000  0.95506000  1
  O  O60  1  0.50000000  0.17164000  0.84126000  1
  O  O61  1  0.00021600  0.15531300  0.72933600  1
  O  O62  1  0.49898394  0.16813116  0.62118955  1
  O  O63  1  0.50000000  0.17164000  0.93115000  1
  O  O64  1  1.00000000  0.17164000  0.81736000  1
  O  O65  1  0.49875221  0.16381652  0.70525983  1
  O  O66  1  0.99882098  0.19164317  0.59581571  1
  O  O67  1  1.00000000  0.50000000  0.95668000  1
  O  O68  1  0.50000000  0.50000000  0.84289000  1
  O  O69  1  0.00049200  0.50002000  0.72830400  1
  O  O70  1  0.50332806  0.47518831  0.61894519  1
  O  O71  1  0.50000000  0.50000000  0.92952000  1
  O  O72  1  0.00000000  0.50000000  0.81573000  1
  O  O73  1  0.49736532  0.50473809  0.70233646  1
  O  O74  1  0.00227272  0.49817348  0.58482622  1
  O  O75  1  0.69034000  1.00000000  1.00000000  1
  O  O76  1  0.19034000  0.00000000  0.88621000  1
  O  O77  1  0.69034000  0.00000000  0.77241000  1
  O  O78  1  0.19193999  0.99991083  0.65925949  1
  O  O79  1  0.75603645  0.01250726  0.54811351  1
  O  O80  1  0.30966000  1.00000000  1.00000000  1
  O  O81  1  0.80966000  0.00000000  0.88621000  1
  O  O82  1  0.30966000  0.00000000  0.77241000  1
  O  O83  1  0.80664954  0.00049893  0.65930805  1
  O  O84  1  0.23178957  0.00678388  0.54718827  1
