# generated using pymatgen
data_MgTiMnVZnCrFeCoCuNiSb20ClO54
_symmetry_space_group_name_H-M   'P 1'
_cell_length_a   6.71821100
_cell_length_b   9.59611100
_cell_length_c   28.83676600
_cell_angle_alpha   89.63338100
_cell_angle_beta   89.93223600
_cell_angle_gamma   90.82801600
_symmetry_Int_Tables_number   1
_chemical_formula_structural   MgTiMnVZnCrFeCoCuNiSb20ClO54
_chemical_formula_sum
'Mg1 Ti1 Mn1 V1 Zn1 Cr1 Fe1 Co1 Cu1 Ni1 Sb20 Cl1 O54'
_cell_volume   1858.83507753
_cell_formula_units_Z   1
loop_
 _symmetry_equiv_pos_site_id
 _symmetry_equiv_pos_as_xyz
  1  'x, y, z'
loop_
 _atom_site_type_symbol
 _atom_site_label
 _atom_site_symmetry_multiplicity
 _atom_site_fract_x
 _atom_site_fract_y
 _atom_site_fract_z
 _atom_site_occupancy
  Mg  Mg0  1  0.50000000  1.00000000  0.11379000  1
  Ti  Ti1  1  0.98802800  0.66301400  0.44750300  1
  Mn  Mn2  1  0.00000000  0.33232000  0.22759000  1
  V  V3  1  1.00000000  0.66768000  0.22759000  1
  Zn  Zn4  1  0.00000000  0.66768000  0.00000000  1
  Cr  Cr5  1  0.49194100  0.17573100  0.45233300  1
  Fe  Fe6  1  0.00000000  0.16768000  0.11379000  1
  Co  Co7  1  0.55495000  0.47462700  0.46476100  1
  Cu  Cu8  1  0.50000000  0.83232000  0.00000000  1
  Ni  Ni9  1  0.44294200  0.85207800  0.46152600  1
  Sb  Sb10  1  0.00000000  0.00000000  0.00000000  1
  Sb  Sb11  1  1.00000000  1.00000000  0.22759000  1
  Sb  Sb12  1  0.51527000  0.99295800  0.35346500  1
  Sb  Sb13  1  0.99199000  0.98668800  0.46696200  1
  Sb  Sb14  1  0.50000000  0.50000000  0.00000000  1
  Sb  Sb15  1  0.00000000  0.50000000  0.11379000  1
  Sb  Sb16  1  0.50000000  0.50000000  0.22759000  1
  Sb  Sb17  1  0.98529700  0.48770100  0.34150000  1
  Sb  Sb18  1  0.50000000  0.66768000  0.11379000  1
  Sb  Sb19  1  0.49780700  0.66437300  0.34984700  1
  Sb  Sb20  1  0.50000000  0.16768000  0.00000000  1
  Sb  Sb21  1  0.50000000  0.16768000  0.22759000  1
  Sb  Sb22  1  0.02807700  0.15938400  0.34467700  1
  Sb  Sb23  1  0.00000000  0.83232000  0.11379000  1
  Sb  Sb24  1  0.50000000  0.83232000  0.22759000  1
  Sb  Sb25  1  0.00321300  0.83276900  0.34145000  1
  Sb  Sb26  1  0.00000000  0.33232000  0.00000000  1
  Sb  Sb27  1  0.50000000  0.33232000  0.11379000  1
  Sb  Sb28  1  0.49951700  0.33592600  0.34391700  1
  Sb  Sb29  1  0.99922000  0.32798800  0.47665100  1
  Cl  Cl30  1  0.60264200  0.47016000  0.53742900  1
  O  O31  1  1.00000000  0.82836000  0.04494000  1
  O  O32  1  0.50000000  0.82836000  0.15874000  1
  O  O33  1  0.99980400  0.84474300  0.27065200  1
  O  O34  1  0.48689800  0.80880300  0.39662600  1
  O  O35  1  0.50000000  0.82836000  0.06885000  1
  O  O36  1  1.00000000  0.82836000  0.18264000  1
  O  O37  1  0.50373400  0.82379200  0.30016800  1
  O  O38  1  0.98224600  0.84200500  0.41098000  1
  O  O39  1  0.30253000  0.32836000  0.00000000  1
  O  O40  1  0.80253000  0.32836000  0.11379000  1
  O  O41  1  0.30253000  0.32836000  0.22759000  1
  O  O42  1  0.78360100  0.30356100  0.33856500  1
  O  O43  1  0.36021900  0.32279900  0.47405100  1
  O  O44  1  0.69747000  0.32836000  0.00000000  1
  O  O45  1  0.19747000  0.32836000  0.11379000  1
  O  O46  1  0.69747000  0.32836000  0.22759000  1
  O  O47  1  0.21876100  0.35437400  0.32953000  1
  O  O48  1  0.70453400  0.32255500  0.45079600  1
  O  O49  1  0.30253000  0.67164000  0.00000000  1
  O  O50  1  0.80253000  0.67164000  0.11379000  1
  O  O51  1  0.30253000  0.67164000  0.22759000  1
  O  O52  1  0.79780900  0.68557400  0.34253900  1
  O  O53  1  0.18964200  0.73902900  0.47976700  1
  O  O54  1  0.69747000  0.67164000  0.00000000  1
  O  O55  1  0.19747000  0.67164000  0.11379000  1
  O  O56  1  0.69747000  0.67164000  0.22759000  1
  O  O57  1  0.19265000  0.67163500  0.34394500  1
  O  O58  1  0.72543300  0.63657700  0.46196900  1
  O  O59  1  1.00000000  0.17164000  0.04494000  1
  O  O60  1  0.50000000  0.17164000  0.15874000  1
  O  O61  1  0.99978400  0.15531300  0.27066400  1
  O  O62  1  0.42826800  0.19552800  0.39217300  1
  O  O63  1  0.50000000  0.17164000  0.06885000  1
  O  O64  1  1.00000000  0.17164000  0.18264000  1
  O  O65  1  0.48107200  0.16710600  0.29769200  1
  O  O66  1  0.00138600  0.17027600  0.43080600  1
  O  O67  1  1.00000000  0.50000000  0.04332000  1
  O  O68  1  0.50000000  0.50000000  0.15711000  1
  O  O69  1  0.99950800  0.50002000  0.27169600  1
  O  O70  1  0.50552000  0.49462400  0.39181800  1
  O  O71  1  0.50000000  0.50000000  0.07048000  1
  O  O72  1  0.00000000  0.50000000  0.18427000  1
  O  O73  1  0.52955100  0.51195200  0.30206800  1
  O  O74  1  0.06084200  0.48314000  0.43217400  1
  O  O75  1  0.30966000  0.00000000  0.00000000  1
  O  O76  1  0.80966000  1.00000000  0.11379000  1
  O  O77  1  0.30966000  1.00000000  0.22759000  1
  O  O78  1  0.82604900  0.99141700  0.33513100  1
  O  O79  1  0.29309900  0.02113600  0.46082400  1
  O  O80  1  0.69034000  0.00000000  0.00000000  1
  O  O81  1  0.19034000  1.00000000  0.11379000  1
  O  O82  1  0.69034000  1.00000000  0.22759000  1
  O  O83  1  0.21115500  0.97393300  0.33905700  1
  O  O84  1  0.65338200  0.02036200  0.45619800  1
