# generated using pymatgen
data_MgTiMnVZnCrFeCoCuNiSb20ClO54
_symmetry_space_group_name_H-M   'P 1'
_cell_length_a   6.61681000
_cell_length_b   9.42990900
_cell_length_c   28.66854600
_cell_angle_alpha   90.05210400
_cell_angle_beta   89.99587200
_cell_angle_gamma   89.99865900
_symmetry_Int_Tables_number   1
_chemical_formula_structural   MgTiMnVZnCrFeCoCuNiSb20ClO54
_chemical_formula_sum
'Mg1 Ti1 Mn1 V1 Zn1 Cr1 Fe1 Co1 Cu1 Ni1 Sb20 Cl1 O54'
_cell_volume   1788.79944815
_cell_formula_units_Z   1
loop_
 _symmetry_equiv_pos_site_id
 _symmetry_equiv_pos_as_xyz
  1  'x, y, z'
loop_
 _atom_site_type_symbol
 _atom_site_label
 _atom_site_symmetry_multiplicity
 _atom_site_fract_x
 _atom_site_fract_y
 _atom_site_fract_z
 _atom_site_occupancy
  Mg  Mg0  1  0.50000000  0.16768000  0.00000000  1
  Ti  Ti1  1  0.00000000  0.66768000  0.00000000  1
  Mn  Mn2  1  1.00000000  0.66768000  0.77241000  1
  V  V3  1  0.50000000  0.00000000  0.88621000  1
  Zn  Zn4  1  1.00000000  0.16768000  0.88621000  1
  Cr  Cr5  1  1.00000000  1.00000000  0.77241000  1
  Fe  Fe6  1  0.00003902  0.16696432  0.65853708  1
  Co  Co7  1  0.50156794  0.50269796  0.54655831  1
  Cu  Cu8  1  0.50000000  0.50000000  0.00000000  1
  Ni  Ni9  1  0.50000000  0.66768000  0.88621000  1
  Sb  Sb10  1  0.00000000  0.00000000  0.00000000  1
  Sb  Sb11  1  0.49973463  0.00257492  0.65012614  1
  Sb  Sb12  1  0.00050429  0.00216816  0.53902595  1
  Sb  Sb13  1  1.00000000  0.50000000  0.88621000  1
  Sb  Sb14  1  0.50000000  0.50000000  0.77241000  1
  Sb  Sb15  1  0.00003848  0.49198271  0.65493174  1
  Sb  Sb16  1  0.00000000  0.33232000  0.00000000  1
  Sb  Sb17  1  0.50000000  0.33232000  0.88621000  1
  Sb  Sb18  1  1.00000000  0.33232000  0.77241000  1
  Sb  Sb19  1  0.50009203  0.33149462  0.65184549  1
  Sb  Sb20  1  0.00088817  0.33316948  0.53463462  1
  Sb  Sb21  1  0.50000000  0.83232000  0.00000000  1
  Sb  Sb22  1  1.00000000  0.83232000  0.88621000  1
  Sb  Sb23  1  0.50000000  0.83232000  0.77241000  1
  Sb  Sb24  1  0.99995480  0.84413759  0.65993521  1
  Sb  Sb25  1  0.50171537  0.82275353  0.52563525  1
  Sb  Sb26  1  0.50000000  0.16768000  0.77241000  1
  Sb  Sb27  1  0.50119702  0.18071120  0.52754207  1
  Sb  Sb28  1  0.49959918  0.67281447  0.65319725  1
  Sb  Sb29  1  0.00072019  0.66886283  0.53517473  1
  Cl  Cl30  1  0.50535716  0.50133167  0.47066294  1
  O  O31  1  1.00000000  0.17164000  0.95506000  1
  O  O32  1  0.50000000  0.17164000  0.84126000  1
  O  O33  1  0.99980400  0.15525700  0.72934800  1
  O  O34  1  0.49930951  0.16905553  0.60776830  1
  O  O35  1  0.50000000  0.17164000  0.93115000  1
  O  O36  1  1.00000000  0.17164000  0.81736000  1
  O  O37  1  0.49989524  0.16655482  0.70058922  1
  O  O38  1  0.00210209  0.17233097  0.58332719  1
  O  O39  1  0.30253000  0.67164000  1.00000000  1
  O  O40  1  0.80253000  0.67164000  0.88621000  1
  O  O41  1  0.30253000  0.67164000  0.77241000  1
  O  O42  1  0.80140278  0.67742478  0.65945485  1
  O  O43  1  0.31347674  0.65948129  0.55065806  1
  O  O44  1  0.69747000  0.67164000  0.00000000  1
  O  O45  1  0.19747000  0.67164000  0.88621000  1
  O  O46  1  0.69747000  0.67164000  0.77241000  1
  O  O47  1  0.19774312  0.67722458  0.65958263  1
  O  O48  1  0.68865933  0.65951339  0.55137837  1
  O  O49  1  0.30253000  0.32836000  1.00000000  1
  O  O50  1  0.80253000  0.32836000  0.88621000  1
  O  O51  1  0.30253000  0.32836000  0.77241000  1
  O  O52  1  0.79947242  0.32313106  0.65833458  1
  O  O53  1  0.31344032  0.34643852  0.55046572  1
  O  O54  1  0.69747000  0.32836000  0.00000000  1
  O  O55  1  0.19747000  0.32836000  0.88621000  1
  O  O56  1  0.69747000  0.32836000  0.77241000  1
  O  O57  1  0.20065544  0.32326214  0.65838069  1
  O  O58  1  0.68861083  0.34553693  0.55135445  1
  O  O59  1  1.00000000  0.82836000  0.95506000  1
  O  O60  1  0.50000000  0.82836000  0.84126000  1
  O  O61  1  0.99978400  0.84468700  0.72933600  1
  O  O62  1  0.49812329  0.83325709  0.60911691  1
  O  O63  1  0.50000000  0.82836000  0.93115000  1
  O  O64  1  1.00000000  0.82836000  0.81736000  1
  O  O65  1  0.49986947  0.83938528  0.70042058  1
  O  O66  1  0.00109840  0.83230164  0.58660125  1
  O  O67  1  0.00000000  0.50000000  0.95668000  1
  O  O68  1  0.50000000  0.50000000  0.84289000  1
  O  O69  1  0.99950800  0.49998000  0.72830400  1
  O  O70  1  0.49917318  0.50340703  0.61165368  1
  O  O71  1  0.50000000  0.50000000  0.92952000  1
  O  O72  1  0.00000000  0.50000000  0.81573000  1
  O  O73  1  0.49991791  0.50060606  0.69975483  1
  O  O74  1  0.00080524  0.50085752  0.58039323  1
  O  O75  1  0.30966000  1.00000000  1.00000000  1
  O  O76  1  0.80966000  0.00000000  0.88621000  1
  O  O77  1  0.30966000  1.00000000  0.77241000  1
  O  O78  1  0.80165874  0.00478246  0.65507924  1
  O  O79  1  0.31118315  0.99753103  0.54978813  1
  O  O80  1  0.69034000  0.00000000  0.00000000  1
  O  O81  1  0.19034000  1.00000000  0.88621000  1
  O  O82  1  0.69034000  0.00000000  0.77241000  1
  O  O83  1  0.19761738  0.00482627  0.65506315  1
  O  O84  1  0.69009812  0.99778115  0.55044461  1
