# generated using pymatgen
data_MgTiMnVZnCrFeCoCuNiSb20ClO54
_symmetry_space_group_name_H-M   'P 1'
_cell_length_a   6.74269200
_cell_length_b   9.62470000
_cell_length_c   28.60763300
_cell_angle_alpha   89.92126600
_cell_angle_beta   89.85046300
_cell_angle_gamma   89.68948800
_symmetry_Int_Tables_number   1
_chemical_formula_structural   MgTiMnVZnCrFeCoCuNiSb20ClO54
_chemical_formula_sum
'Mg1 Ti1 Mn1 V1 Zn1 Cr1 Fe1 Co1 Cu1 Ni1 Sb20 Cl1 O54'
_cell_volume   1856.49673862
_cell_formula_units_Z   1
loop_
 _symmetry_equiv_pos_site_id
 _symmetry_equiv_pos_as_xyz
  1  'x, y, z'
loop_
 _atom_site_type_symbol
 _atom_site_label
 _atom_site_symmetry_multiplicity
 _atom_site_fract_x
 _atom_site_fract_y
 _atom_site_fract_z
 _atom_site_occupancy
  Mg  Mg0  1  1.00000000  0.66768000  0.22759000  1
  Ti  Ti1  1  0.99346164  0.48491983  0.33645951  1
  Mn  Mn2  1  0.50000000  0.33232000  0.11379000  1
  V  V3  1  0.04907056  0.33603332  0.43079448  1
  Zn  Zn4  1  0.00000000  0.66768000  0.00000000  1
  Cr  Cr5  1  0.50000000  0.83232000  0.22759000  1
  Fe  Fe6  1  0.50000000  0.66768000  0.11379000  1
  Co  Co7  1  0.46921082  0.49610571  0.45808309  1
  Cu  Cu8  1  0.00138699  0.17098589  0.33373826  1
  Ni  Ni9  1  1.00000000  0.00000000  0.22759000  1
  Sb  Sb10  1  0.00000000  0.00000000  0.00000000  1
  Sb  Sb11  1  0.50000000  0.00000000  0.11379000  1
  Sb  Sb12  1  0.49037853  0.99306529  0.34894679  1
  Sb  Sb13  1  0.99687824  0.98374726  0.42292923  1
  Sb  Sb14  1  0.50000000  0.50000000  0.00000000  1
  Sb  Sb15  1  1.00000000  0.50000000  0.11379000  1
  Sb  Sb16  1  0.50000000  0.50000000  0.22759000  1
  Sb  Sb17  1  0.00000000  0.33232000  0.00000000  1
  Sb  Sb18  1  1.00000000  0.33232000  0.22759000  1
  Sb  Sb19  1  0.50151828  0.33860982  0.34809964  1
  Sb  Sb20  1  0.50000000  0.83232000  0.00000000  1
  Sb  Sb21  1  1.00000000  0.83232000  0.11379000  1
  Sb  Sb22  1  0.97520489  0.81227913  0.33522906  1
  Sb  Sb23  1  0.45768586  0.81072161  0.46575920  1
  Sb  Sb24  1  0.50000000  0.16768000  0.00000000  1
  Sb  Sb25  1  1.00000000  0.16768000  0.11379000  1
  Sb  Sb26  1  0.50000000  0.16768000  0.22759000  1
  Sb  Sb27  1  0.59796102  0.20570186  0.47005632  1
  Sb  Sb28  1  0.48318736  0.66373726  0.34439468  1
  Sb  Sb29  1  0.95954478  0.64017819  0.46676367  1
  Cl  Cl30  1  0.51592439  0.45665201  0.53161399  1
  O  O31  1  1.00000000  0.17164000  0.04494000  1
  O  O32  1  0.50000000  0.17164000  0.15874000  1
  O  O33  1  0.00019600  0.15525700  0.27065200  1
  O  O34  1  0.53958930  0.20314210  0.39960738  1
  O  O35  1  0.50000000  0.17164000  0.06885000  1
  O  O36  1  1.00000000  0.17164000  0.18264000  1
  O  O37  1  0.49839882  0.19123479  0.29953107  1
  O  O38  1  0.03578333  0.17544819  0.39986649  1
  O  O39  1  0.69747000  0.67164000  0.00000000  1
  O  O40  1  0.19747000  0.67164000  0.11379000  1
  O  O41  1  0.69747000  0.67164000  0.22759000  1
  O  O42  1  0.17816830  0.65537026  0.34199845  1
  O  O43  1  0.65161581  0.63466349  0.45912464  1
  O  O44  1  0.30253000  0.67164000  0.00000000  1
  O  O45  1  0.80253000  0.67164000  0.11379000  1
  O  O46  1  0.30253000  0.67164000  0.22759000  1
  O  O47  1  0.79095769  0.64979012  0.33854630  1
  O  O48  1  0.27268383  0.65462819  0.45526327  1
  O  O49  1  0.69747000  0.32836000  0.00000000  1
  O  O50  1  0.19747000  0.32836000  0.11379000  1
  O  O51  1  0.69747000  0.32836000  0.22759000  1
  O  O52  1  0.20102720  0.35818094  0.35067518  1
  O  O53  1  0.86871195  0.30491254  0.47305227  1
  O  O54  1  0.30253000  0.32836000  0.00000000  1
  O  O55  1  0.80253000  0.32836000  0.11379000  1
  O  O56  1  0.30253000  0.32836000  0.22759000  1
  O  O57  1  0.79598827  0.35462083  0.34209938  1
  O  O58  1  0.26993475  0.36070575  0.45579732  1
  O  O59  1  1.00000000  0.82836000  0.04494000  1
  O  O60  1  0.50000000  0.82836000  0.15874000  1
  O  O61  1  0.00021600  0.84468700  0.27066400  1
  O  O62  1  0.50012899  0.81359067  0.39335239  1
  O  O63  1  0.50000000  0.82836000  0.06885000  1
  O  O64  1  1.00000000  0.82836000  0.18264000  1
  O  O65  1  0.49495456  0.82717234  0.30105230  1
  O  O66  1  0.93512610  0.78462445  0.41595942  1
  O  O67  1  1.00000000  0.50000000  0.04332000  1
  O  O68  1  0.50000000  0.50000000  0.15711000  1
  O  O69  1  0.00049200  0.49998000  0.27169600  1
  O  O70  1  0.50079188  0.50452449  0.39042558  1
  O  O71  1  0.50000000  0.50000000  0.07048000  1
  O  O72  1  1.00000000  0.50000000  0.18427000  1
  O  O73  1  0.48578861  0.49724308  0.29975281  1
  O  O74  1  0.97527601  0.50415557  0.41135290  1
  O  O75  1  0.69034000  1.00000000  0.00000000  1
  O  O76  1  0.19034000  0.00000000  0.11379000  1
  O  O77  1  0.69034000  1.00000000  0.22759000  1
  O  O78  1  0.16760902  0.94234716  0.36381780  1
  O  O79  1  0.75755832  0.02455162  0.45921225  1
  O  O80  1  0.30966000  0.00000000  0.00000000  1
  O  O81  1  0.80966000  1.00000000  0.11379000  1
  O  O82  1  0.30966000  0.00000000  0.22759000  1
  O  O83  1  0.80465496  0.97294392  0.35771664  1
  O  O84  1  0.22465384  0.96659352  0.46295373  1
