# generated using pymatgen
data_MgTiMnVZnCrFeCoCuNiSb20ClO54
_symmetry_space_group_name_H-M   'P 1'
_cell_length_a   6.66160600
_cell_length_b   9.55633400
_cell_length_c   29.40108600
_cell_angle_alpha   90.17741700
_cell_angle_beta   89.97411400
_cell_angle_gamma   89.76988500
_symmetry_Int_Tables_number   1
_chemical_formula_structural   MgTiMnVZnCrFeCoCuNiSb20ClO54
_chemical_formula_sum
'Mg1 Ti1 Mn1 V1 Zn1 Cr1 Fe1 Co1 Cu1 Ni1 Sb20 Cl1 O54'
_cell_volume   1871.66450322
_cell_formula_units_Z   1
loop_
 _symmetry_equiv_pos_site_id
 _symmetry_equiv_pos_as_xyz
  1  'x, y, z'
loop_
 _atom_site_type_symbol
 _atom_site_label
 _atom_site_symmetry_multiplicity
 _atom_site_fract_x
 _atom_site_fract_y
 _atom_site_fract_z
 _atom_site_occupancy
  Mg  Mg0  1  0.99823388  0.50366458  0.34196035  1
  Ti  Ti1  1  0.50000000  0.83232000  0.00000000  1
  Mn  Mn2  1  0.52131448  0.99652216  0.34131370  1
  V  V3  1  0.50000000  0.50000000  0.00000000  1
  Zn  Zn4  1  0.50000000  0.33232000  0.11379000  1
  Cr  Cr5  1  0.00000000  0.66768000  0.00000000  1
  Fe  Fe6  1  0.50000000  0.83232000  0.22759000  1
  Co  Co7  1  0.50224391  0.50323067  0.44308480  1
  Cu  Cu8  1  0.99872273  0.18309823  0.33581366  1
  Ni  Ni9  1  0.98947374  0.82254720  0.33615123  1
  Sb  Sb10  1  0.00000000  0.00000000  0.00000000  1
  Sb  Sb11  1  0.50000000  0.00000000  0.11379000  1
  Sb  Sb12  1  0.00000000  0.00000000  0.22759000  1
  Sb  Sb13  1  0.01067664  0.00019999  0.41105912  1
  Sb  Sb14  1  0.00000000  0.50000000  0.11379000  1
  Sb  Sb15  1  0.50000000  0.50000000  0.22759000  1
  Sb  Sb16  1  0.50000000  0.66768000  0.11379000  1
  Sb  Sb17  1  0.00000000  0.66768000  0.22759000  1
  Sb  Sb18  1  0.49547970  0.68169520  0.33856335  1
  Sb  Sb19  1  0.99828288  0.66623172  0.45450292  1
  Sb  Sb20  1  0.50000000  0.16768000  0.00000000  1
  Sb  Sb21  1  0.00000000  0.16768000  0.11379000  1
  Sb  Sb22  1  0.50000000  0.16768000  0.22759000  1
  Sb  Sb23  1  0.51561585  0.18193836  0.45368980  1
  Sb  Sb24  1  0.00000000  0.83232000  0.11379000  1
  Sb  Sb25  1  0.49792827  0.82582606  0.45478149  1
  Sb  Sb26  1  0.00000000  0.33232000  0.00000000  1
  Sb  Sb27  1  0.00000000  0.33232000  0.22759000  1
  Sb  Sb28  1  0.49951579  0.32872890  0.34243989  1
  Sb  Sb29  1  0.01039369  0.34035845  0.45288816  1
  Cl  Cl30  1  0.49855115  0.49012540  0.51696835  1
  O  O31  1  0.00000000  0.82836000  0.04494000  1
  O  O32  1  0.50000000  0.82836000  0.15874000  1
  O  O33  1  0.99980400  0.84474300  0.27065200  1
  O  O34  1  0.49815750  0.84813433  0.38373306  1
  O  O35  1  0.50000000  0.82836000  0.06885000  1
  O  O36  1  0.00000000  0.82836000  0.18264000  1
  O  O37  1  0.49820715  0.85328695  0.29675970  1
  O  O38  1  0.98739474  0.79711560  0.40257796  1
  O  O39  1  0.30253000  0.32836000  0.00000000  1
  O  O40  1  0.80253000  0.32836000  0.11379000  1
  O  O41  1  0.30253000  0.32836000  0.22759000  1
  O  O42  1  0.79062357  0.33615394  0.33349214  1
  O  O43  1  0.32378807  0.34903292  0.43741595  1
  O  O44  1  0.69747000  0.32836000  0.00000000  1
  O  O45  1  0.19747000  0.32836000  0.11379000  1
  O  O46  1  0.69747000  0.32836000  0.22759000  1
  O  O47  1  0.21019548  0.33799381  0.33358662  1
  O  O48  1  0.69084180  0.35097757  0.43865020  1
  O  O49  1  0.30253000  0.67164000  0.00000000  1
  O  O50  1  0.80253000  0.67164000  0.11379000  1
  O  O51  1  0.30253000  0.67164000  0.22759000  1
  O  O52  1  0.79358501  0.67193064  0.33253822  1
  O  O53  1  0.31598688  0.65753027  0.44252188  1
  O  O54  1  0.69747000  0.67164000  0.00000000  1
  O  O55  1  0.19747000  0.67164000  0.11379000  1
  O  O56  1  0.69747000  0.67164000  0.22759000  1
  O  O57  1  0.19800158  0.67406656  0.33307868  1
  O  O58  1  0.68341069  0.65357632  0.44220245  1
  O  O59  1  0.00000000  0.17164000  0.04494000  1
  O  O60  1  0.50000000  0.17164000  0.15874000  1
  O  O61  1  0.99978400  0.15531300  0.27066400  1
  O  O62  1  0.50252411  0.15205714  0.38299349  1
  O  O63  1  0.50000000  0.17164000  0.06885000  1
  O  O64  1  0.00000000  0.17164000  0.18264000  1
  O  O65  1  0.50137904  0.15551971  0.29648463  1
  O  O66  1  0.00556441  0.20429891  0.40207892  1
  O  O67  1  0.00000000  0.50000000  0.04332000  1
  O  O68  1  0.50000000  0.50000000  0.15711000  1
  O  O69  1  0.99950800  0.50002000  0.27169600  1
  O  O70  1  0.50151860  0.50961548  0.37943233  1
  O  O71  1  0.50000000  0.50000000  0.07048000  1
  O  O72  1  0.00000000  0.50000000  0.18427000  1
  O  O73  1  0.49890535  0.50301141  0.29434186  1
  O  O74  1  0.00409970  0.50457140  0.41173742  1
  O  O75  1  0.30966000  1.00000000  1.00000000  1
  O  O76  1  0.80966000  0.00000000  0.11379000  1
  O  O77  1  0.30966000  1.00000000  0.22759000  1
  O  O78  1  0.80007405  0.99049901  0.34535539  1
  O  O79  1  0.24536053  0.99183516  0.45046141  1
  O  O80  1  0.69034000  0.00000000  0.00000000  1
  O  O81  1  0.19034000  1.00000000  0.11379000  1
  O  O82  1  0.69034000  0.00000000  0.22759000  1
  O  O83  1  0.16029090  0.99250360  0.34924291  1
  O  O84  1  0.76599263  0.01118351  0.44814331  1
