# generated using pymatgen
data_MgTiMnVZnCrFeCoCuNiSb20ClO54
_symmetry_space_group_name_H-M   'P 1'
_cell_length_a   6.67447500
_cell_length_b   9.41486300
_cell_length_c   29.72853600
_cell_angle_alpha   90.13713600
_cell_angle_beta   89.96385700
_cell_angle_gamma   89.99569300
_symmetry_Int_Tables_number   1
_chemical_formula_structural   MgTiMnVZnCrFeCoCuNiSb20ClO54
_chemical_formula_sum
'Mg1 Ti1 Mn1 V1 Zn1 Cr1 Fe1 Co1 Cu1 Ni1 Sb20 Cl1 O54'
_cell_volume   1868.11370454
_cell_formula_units_Z   1
loop_
 _symmetry_equiv_pos_site_id
 _symmetry_equiv_pos_as_xyz
  1  'x, y, z'
loop_
 _atom_site_type_symbol
 _atom_site_label
 _atom_site_symmetry_multiplicity
 _atom_site_fract_x
 _atom_site_fract_y
 _atom_site_fract_z
 _atom_site_occupancy
  Mg  Mg0  1  0.50000000  0.16768000  1.00000000  1
  Ti  Ti1  1  0.99998272  0.13856938  0.33643964  1
  Mn  Mn2  1  0.00000959  0.84401000  0.34180583  1
  V  V3  1  0.49998981  0.17515516  0.43668014  1
  Zn  Zn4  1  0.50000000  0.83232000  1.00000000  1
  Cr  Cr5  1  0.50000000  0.16768000  0.22759000  1
  Fe  Fe6  1  0.00000000  0.33232000  0.22759000  1
  Co  Co7  1  0.50067081  0.49087430  0.44428720  1
  Cu  Cu8  1  0.50002453  0.00196819  0.33508843  1
  Ni  Ni9  1  0.00000000  0.83232000  0.11379000  1
  Sb  Sb10  1  0.00000000  0.00000000  0.00000000  1
  Sb  Sb11  1  0.50000000  1.00000000  0.11379000  1
  Sb  Sb12  1  0.00000000  0.00000000  0.22759000  1
  Sb  Sb13  1  0.00026316  0.00868799  0.45568151  1
  Sb  Sb14  1  0.50000000  0.50000000  1.00000000  1
  Sb  Sb15  1  0.00000000  0.50000000  0.11379000  1
  Sb  Sb16  1  0.50000000  0.50000000  0.22759000  1
  Sb  Sb17  1  0.00003465  0.49862831  0.33897558  1
  Sb  Sb18  1  0.00000000  0.66768000  1.00000000  1
  Sb  Sb19  1  0.50000000  0.66768000  0.11379000  1
  Sb  Sb20  1  0.00000000  0.66768000  0.22759000  1
  Sb  Sb21  1  0.49968250  0.67751053  0.34494445  1
  Sb  Sb22  1  0.99890411  0.66176434  0.45491710  1
  Sb  Sb23  1  0.00000000  0.16768000  0.11379000  1
  Sb  Sb24  1  0.50000000  0.83232000  0.22759000  1
  Sb  Sb25  1  0.50032633  0.81247001  0.45292472  1
  Sb  Sb26  1  0.00000000  0.33232000  1.00000000  1
  Sb  Sb27  1  0.50000000  0.33232000  0.11379000  1
  Sb  Sb28  1  0.49974949  0.32913261  0.33377331  1
  Sb  Sb29  1  0.99991914  0.32940436  0.45324397  1
  Cl  Cl30  1  0.50833263  0.51920968  0.51692127  1
  O  O31  1  0.00000000  0.82836000  0.04494000  1
  O  O32  1  0.50000000  0.82836000  0.15874000  1
  O  O33  1  0.99980400  0.84474300  0.27065200  1
  O  O34  1  0.49678310  0.84442279  0.38574379  1
  O  O35  1  0.50000000  0.82836000  0.06885000  1
  O  O36  1  0.00000000  0.82836000  0.18264000  1
  O  O37  1  0.50036068  0.82402806  0.29497837  1
  O  O38  1  0.00043449  0.83806859  0.41252498  1
  O  O39  1  0.30253000  0.32836000  1.00000000  1
  O  O40  1  0.80253000  0.32836000  0.11379000  1
  O  O41  1  0.30253000  0.32836000  0.22759000  1
  O  O42  1  0.80581173  0.33087664  0.33787249  1
  O  O43  1  0.32420664  0.33170589  0.44670081  1
  O  O44  1  0.69747000  0.32836000  1.00000000  1
  O  O45  1  0.19747000  0.32836000  0.11379000  1
  O  O46  1  0.69747000  0.32836000  0.22759000  1
  O  O47  1  0.19324015  0.33022995  0.33732954  1
  O  O48  1  0.67750662  0.33199747  0.44543800  1
  O  O49  1  0.30253000  0.67164000  1.00000000  1
  O  O50  1  0.80253000  0.67164000  0.11379000  1
  O  O51  1  0.30253000  0.67164000  0.22759000  1
  O  O52  1  0.80960658  0.67277092  0.34036733  1
  O  O53  1  0.30981319  0.64700468  0.43899594  1
  O  O54  1  0.69747000  0.67164000  1.00000000  1
  O  O55  1  0.19747000  0.67164000  0.11379000  1
  O  O56  1  0.69747000  0.67164000  0.22759000  1
  O  O57  1  0.18993305  0.67299971  0.33995458  1
  O  O58  1  0.68889873  0.64704052  0.43726712  1
  O  O59  1  0.00000000  0.17164000  0.04494000  1
  O  O60  1  0.50000000  0.17164000  0.15874000  1
  O  O61  1  0.99978400  0.15531300  0.27066400  1
  O  O62  1  0.49887769  0.16869208  0.37809723  1
  O  O63  1  0.50000000  0.17164000  0.06885000  1
  O  O64  1  1.00000000  0.17164000  0.18264000  1
  O  O65  1  0.50129906  0.16860447  0.29148907  1
  O  O66  1  0.00102314  0.16710108  0.40723237  1
  O  O67  1  0.00000000  0.50000000  0.04332000  1
  O  O68  1  0.50000000  0.50000000  0.15711000  1
  O  O69  1  0.99950800  0.50002000  0.27169600  1
  O  O70  1  0.49483679  0.48910454  0.37968101  1
  O  O71  1  0.50000000  0.50000000  0.07048000  1
  O  O72  1  0.00000000  0.50000000  0.18427000  1
  O  O73  1  0.50035742  0.51190814  0.29610460  1
  O  O74  1  0.00250423  0.49514968  0.40810721  1
  O  O75  1  0.30966000  0.00000000  0.00000000  1
  O  O76  1  0.80966000  1.00000000  0.11379000  1
  O  O77  1  0.30966000  0.00000000  0.22759000  1
  O  O78  1  0.81428006  0.99611677  0.34046867  1
  O  O79  1  0.31157399  0.04781797  0.45085742  1
  O  O80  1  0.69034000  1.00000000  1.00000000  1
  O  O81  1  0.19034000  0.00000000  0.11379000  1
  O  O82  1  0.69034000  1.00000000  0.22759000  1
  O  O83  1  0.18570641  0.99624871  0.33993487  1
  O  O84  1  0.68904922  0.04854253  0.45072905  1
