# generated using pymatgen
data_MgTiMnVZnCrFeCoCuNiSb20ClO54
_symmetry_space_group_name_H-M   'P 1'
_cell_length_a   6.63318600
_cell_length_b   9.61414400
_cell_length_c   29.05958800
_cell_angle_alpha   90.01750600
_cell_angle_beta   89.99539600
_cell_angle_gamma   89.97905700
_symmetry_Int_Tables_number   1
_chemical_formula_structural   MgTiMnVZnCrFeCoCuNiSb20ClO54
_chemical_formula_sum
'Mg1 Ti1 Mn1 V1 Zn1 Cr1 Fe1 Co1 Cu1 Ni1 Sb20 Cl1 O54'
_cell_volume   1853.19960989
_cell_formula_units_Z   1
loop_
 _symmetry_equiv_pos_site_id
 _symmetry_equiv_pos_as_xyz
  1  'x, y, z'
loop_
 _atom_site_type_symbol
 _atom_site_label
 _atom_site_symmetry_multiplicity
 _atom_site_fract_x
 _atom_site_fract_y
 _atom_site_fract_z
 _atom_site_occupancy
  Mg  Mg0  1  0.00344729  0.01250377  0.56728246  1
  Ti  Ti1  1  1.00000000  0.33232000  0.00000000  1
  Mn  Mn2  1  0.00000000  0.50000000  0.88621000  1
  V  V3  1  0.00000000  0.33232000  0.77241000  1
  Zn  Zn4  1  0.00000000  1.00000000  0.77241000  1
  Cr  Cr5  1  0.00000000  0.66768000  0.00000000  1
  Fe  Fe6  1  0.50000000  0.16768000  0.77241000  1
  Co  Co7  1  0.50112679  0.49660183  0.55181412  1
  Cu  Cu8  1  0.50000000  0.50000000  0.77241000  1
  Ni  Ni9  1  0.00015887  0.16955012  0.66405748  1
  Sb  Sb10  1  0.00000000  0.00000000  0.00000000  1
  Sb  Sb11  1  0.50000000  1.00000000  0.88621000  1
  Sb  Sb12  1  0.50033809  0.00097734  0.65833433  1
  Sb  Sb13  1  0.50000000  0.50000000  1.00000000  1
  Sb  Sb14  1  0.00207038  0.48925996  0.66026392  1
  Sb  Sb15  1  0.50000000  0.33232000  0.88621000  1
  Sb  Sb16  1  0.50038783  0.33410937  0.66414539  1
  Sb  Sb17  1  0.00046926  0.32818401  0.54479985  1
  Sb  Sb18  1  0.50000000  0.83232000  1.00000000  1
  Sb  Sb19  1  0.00000000  0.83232000  0.88621000  1
  Sb  Sb20  1  0.50000000  0.83232000  0.77241000  1
  Sb  Sb21  1  0.00055121  0.83840649  0.66154432  1
  Sb  Sb22  1  0.50130064  0.81794577  0.53679825  1
  Sb  Sb23  1  0.50000000  0.16768000  1.00000000  1
  Sb  Sb24  1  0.00000000  0.16768000  0.88621000  1
  Sb  Sb25  1  0.50295220  0.16819913  0.54495381  1
  Sb  Sb26  1  0.50000000  0.66768000  0.88621000  1
  Sb  Sb27  1  0.00000000  0.66768000  0.77241000  1
  Sb  Sb28  1  0.50159568  0.66245080  0.65168909  1
  Sb  Sb29  1  0.99814116  0.66633363  0.54598758  1
  Cl  Cl30  1  0.51688028  0.52849202  0.47748450  1
  O  O31  1  0.00000000  0.17164000  0.95506000  1
  O  O32  1  0.50000000  0.17164000  0.84126000  1
  O  O33  1  0.99980400  0.15525700  0.72934800  1
  O  O34  1  0.49923733  0.16911136  0.61579916  1
  O  O35  1  0.50000000  0.17164000  0.93115000  1
  O  O36  1  0.00000000  0.17164000  0.81736000  1
  O  O37  1  0.50099246  0.16078318  0.70263059  1
  O  O38  1  0.00389000  0.19373138  0.59428688  1
  O  O39  1  0.30253000  0.67164000  0.00000000  1
  O  O40  1  0.80253000  0.67164000  0.88621000  1
  O  O41  1  0.30253000  0.67164000  0.77241000  1
  O  O42  1  0.81066868  0.66585126  0.66013480  1
  O  O43  1  0.31268791  0.65296615  0.55962891  1
  O  O44  1  0.69747000  0.67164000  1.00000000  1
  O  O45  1  0.19747000  0.67164000  0.88621000  1
  O  O46  1  0.69747000  0.67164000  0.77241000  1
  O  O47  1  0.19170728  0.66644219  0.66012177  1
  O  O48  1  0.68424080  0.65198266  0.56323487  1
  O  O49  1  0.30253000  0.32836000  0.00000000  1
  O  O50  1  0.80253000  0.32836000  0.88621000  1
  O  O51  1  0.30253000  0.32836000  0.77241000  1
  O  O52  1  0.80380286  0.33200636  0.66205379  1
  O  O53  1  0.31872431  0.34767183  0.54807148  1
  O  O54  1  0.69747000  0.32836000  1.00000000  1
  O  O55  1  0.19747000  0.32836000  0.88621000  1
  O  O56  1  0.69747000  0.32836000  0.77241000  1
  O  O57  1  0.19654886  0.33052205  0.66314956  1
  O  O58  1  0.68370977  0.34833736  0.55193909  1
  O  O59  1  0.00000000  0.82836000  0.95506000  1
  O  O60  1  0.50000000  0.82836000  0.84126000  1
  O  O61  1  0.99978400  0.84468700  0.72933600  1
  O  O62  1  0.49782080  0.84263443  0.61172874  1
  O  O63  1  0.50000000  0.82836000  0.93115000  1
  O  O64  1  0.00000000  0.82836000  0.81736000  1
  O  O65  1  0.50055508  0.82903178  0.69993567  1
  O  O66  1  0.00101280  0.82317318  0.59208761  1
  O  O67  1  0.00000000  0.50000000  0.95668000  1
  O  O68  1  0.50000000  0.50000000  0.84289000  1
  O  O69  1  0.99950800  0.49998000  0.72830400  1
  O  O70  1  0.49000091  0.48411505  0.61534657  1
  O  O71  1  0.50000000  0.50000000  0.92952000  1
  O  O72  1  1.00000000  0.50000000  0.81573000  1
  O  O73  1  0.50089278  0.50979318  0.70158085  1
  O  O74  1  0.00322404  0.49722358  0.58933416  1
  O  O75  1  0.30966000  0.00000000  0.00000000  1
  O  O76  1  0.80966000  1.00000000  0.88621000  1
  O  O77  1  0.30966000  0.00000000  0.77241000  1
  O  O78  1  0.80552390  0.99787924  0.65532255  1
  O  O79  1  0.29344225  0.01078706  0.54449752  1
  O  O80  1  0.69034000  1.00000000  1.00000000  1
  O  O81  1  0.19034000  0.00000000  0.88621000  1
  O  O82  1  0.69034000  1.00000000  0.77241000  1
  O  O83  1  0.19489666  0.99797925  0.65556625  1
  O  O84  1  0.71241913  0.01185992  0.54522650  1
