# generated using pymatgen
data_MgTiMnVZnCrFeCoCuNiSb20ClO54
_symmetry_space_group_name_H-M   'P 1'
_cell_length_a   6.66642900
_cell_length_b   9.53122800
_cell_length_c   28.93245000
_cell_angle_alpha   89.88127500
_cell_angle_beta   89.97083000
_cell_angle_gamma   89.99993200
_symmetry_Int_Tables_number   1
_chemical_formula_structural   MgTiMnVZnCrFeCoCuNiSb20ClO54
_chemical_formula_sum
'Mg1 Ti1 Mn1 V1 Zn1 Cr1 Fe1 Co1 Cu1 Ni1 Sb20 Cl1 O54'
_cell_volume   1838.34212598
_cell_formula_units_Z   1
loop_
 _symmetry_equiv_pos_site_id
 _symmetry_equiv_pos_as_xyz
  1  'x, y, z'
loop_
 _atom_site_type_symbol
 _atom_site_label
 _atom_site_symmetry_multiplicity
 _atom_site_fract_x
 _atom_site_fract_y
 _atom_site_fract_z
 _atom_site_occupancy
  Mg  Mg0  1  0.99985419  0.16530410  0.33953112  1
  Ti  Ti1  1  0.49988801  0.33023921  0.34411371  1
  Mn  Mn2  1  0.00000000  0.00000000  0.00000000  1
  V  V3  1  0.50055194  0.82315583  0.44702358  1
  Zn  Zn4  1  1.00000000  0.83232000  0.11379000  1
  Cr  Cr5  1  1.00000000  0.50000000  0.11379000  1
  Fe  Fe6  1  0.50000000  0.00000000  0.11379000  1
  Co  Co7  1  0.50333582  0.51013569  0.45278834  1
  Cu  Cu8  1  0.50000000  0.16768000  0.22759000  1
  Ni  Ni9  1  0.00000000  0.00000000  0.22759000  1
  Sb  Sb10  1  0.49975495  0.01291612  0.33862748  1
  Sb  Sb11  1  0.00220578  0.99313167  0.46454576  1
  Sb  Sb12  1  0.50000000  0.50000000  0.00000000  1
  Sb  Sb13  1  0.50000000  0.50000000  0.22759000  1
  Sb  Sb14  1  0.99991490  0.47648799  0.34912703  1
  Sb  Sb15  1  1.00000000  0.66768000  0.00000000  1
  Sb  Sb16  1  0.50000000  0.66768000  0.11379000  1
  Sb  Sb17  1  1.00000000  0.66768000  0.22759000  1
  Sb  Sb18  1  0.49938312  0.66453744  0.34356942  1
  Sb  Sb19  1  0.99930007  0.67425877  0.46577461  1
  Sb  Sb20  1  0.50000000  0.16768000  0.00000000  1
  Sb  Sb21  1  0.00000000  0.16768000  0.11379000  1
  Sb  Sb22  1  0.50538505  0.19207564  0.45866892  1
  Sb  Sb23  1  0.50000000  0.83232000  0.00000000  1
  Sb  Sb24  1  0.50000000  0.83232000  0.22759000  1
  Sb  Sb25  1  0.99985196  0.84210767  0.34047711  1
  Sb  Sb26  1  0.00000000  0.33232000  0.00000000  1
  Sb  Sb27  1  0.50000000  0.33232000  0.11379000  1
  Sb  Sb28  1  0.00000000  0.33232000  0.22759000  1
  Sb  Sb29  1  0.00347576  0.33278429  0.46871918  1
  Cl  Cl30  1  0.51264222  0.49540930  0.52782958  1
  O  O31  1  1.00000000  0.82836000  0.04494000  1
  O  O32  1  0.50000000  0.82836000  0.15874000  1
  O  O33  1  0.99980400  0.84474300  0.27065200  1
  O  O34  1  0.49841681  0.83906752  0.38500955  1
  O  O35  1  0.50000000  0.82836000  0.06885000  1
  O  O36  1  1.00000000  0.82836000  0.18264000  1
  O  O37  1  0.49979743  0.83008820  0.29795000  1
  O  O38  1  0.00275570  0.83161752  0.41502089  1
  O  O39  1  0.30253000  0.32836000  0.00000000  1
  O  O40  1  0.80253000  0.32836000  0.11379000  1
  O  O41  1  0.30253000  0.32836000  0.22759000  1
  O  O42  1  0.78891254  0.32229435  0.34512154  1
  O  O43  1  0.31275903  0.35260792  0.45022642  1
  O  O44  1  0.69747000  0.32836000  0.00000000  1
  O  O45  1  0.19747000  0.32836000  0.11379000  1
  O  O46  1  0.69747000  0.32836000  0.22759000  1
  O  O47  1  0.21047939  0.32211312  0.34507304  1
  O  O48  1  0.69398286  0.35421090  0.44854764  1
  O  O49  1  0.30253000  0.67164000  0.00000000  1
  O  O50  1  0.80253000  0.67164000  0.11379000  1
  O  O51  1  0.30253000  0.67164000  0.22759000  1
  O  O52  1  0.79646600  0.68413885  0.34136445  1
  O  O53  1  0.32688632  0.66793077  0.45429816  1
  O  O54  1  0.69747000  0.67164000  0.00000000  1
  O  O55  1  0.19747000  0.67164000  0.11379000  1
  O  O56  1  0.69747000  0.67164000  0.22759000  1
  O  O57  1  0.20253637  0.68393614  0.34126630  1
  O  O58  1  0.67849837  0.66734812  0.45261424  1
  O  O59  1  0.00000000  0.17164000  0.04494000  1
  O  O60  1  0.50000000  0.17164000  0.15874000  1
  O  O61  1  0.99978400  0.15531300  0.27066400  1
  O  O62  1  0.49921432  0.16366876  0.38940929  1
  O  O63  1  0.50000000  0.17164000  0.06885000  1
  O  O64  1  0.00000000  0.17164000  0.18264000  1
  O  O65  1  0.49993592  0.18143747  0.29938747  1
  O  O66  1  0.00149041  0.16452894  0.42318381  1
  O  O67  1  1.00000000  0.50000000  0.04332000  1
  O  O68  1  0.50000000  0.50000000  0.15711000  1
  O  O69  1  0.99950800  0.50002000  0.27169600  1
  O  O70  1  0.49703669  0.50402820  0.38601137  1
  O  O71  1  0.50000000  0.50000000  0.07048000  1
  O  O72  1  1.00000000  0.50000000  0.18427000  1
  O  O73  1  0.49963529  0.50249775  0.29795997  1
  O  O74  1  0.00458771  0.50329450  0.42632723  1
  O  O75  1  0.30966000  0.00000000  0.00000000  1
  O  O76  1  0.80966000  0.00000000  0.11379000  1
  O  O77  1  0.30966000  0.00000000  0.22759000  1
  O  O78  1  0.80064240  0.99882639  0.34638050  1
  O  O79  1  0.31322419  0.94655984  0.46027644  1
  O  O80  1  0.69034000  0.00000000  0.00000000  1
  O  O81  1  0.19034000  0.00000000  0.11379000  1
  O  O82  1  0.69034000  0.00000000  0.22759000  1
  O  O83  1  0.19887235  0.99886768  0.34620630  1
  O  O84  1  0.69205675  0.94302052  0.46030739  1
