# generated using pymatgen
data_MgTiMnVZnCrFeCoCuNiSb20ClO54
_symmetry_space_group_name_H-M   'P 1'
_cell_length_a   6.69722900
_cell_length_b   9.44967700
_cell_length_c   28.86210400
_cell_angle_alpha   89.77841200
_cell_angle_beta   89.98218400
_cell_angle_gamma   89.99580800
_symmetry_Int_Tables_number   1
_chemical_formula_structural   MgTiMnVZnCrFeCoCuNiSb20ClO54
_chemical_formula_sum
'Mg1 Ti1 Mn1 V1 Zn1 Cr1 Fe1 Co1 Cu1 Ni1 Sb20 Cl1 O54'
_cell_volume   1826.57214528
_cell_formula_units_Z   1
loop_
 _symmetry_equiv_pos_site_id
 _symmetry_equiv_pos_as_xyz
  1  'x, y, z'
loop_
 _atom_site_type_symbol
 _atom_site_label
 _atom_site_symmetry_multiplicity
 _atom_site_fract_x
 _atom_site_fract_y
 _atom_site_fract_z
 _atom_site_occupancy
  Mg  Mg0  1  0.99967537  0.49628332  0.66267602  1
  Ti  Ti1  1  0.99814674  0.65707416  0.57141692  1
  Mn  Mn2  1  0.50000000  0.33232000  0.88621000  1
  V  V3  1  0.00000000  0.83232000  0.88621000  1
  Zn  Zn4  1  0.00000000  0.00000000  0.77241000  1
  Cr  Cr5  1  0.49992275  0.00381026  0.65624456  1
  Fe  Fe6  1  0.50000000  0.00000000  0.88621000  1
  Co  Co7  1  0.49919419  0.49779307  0.54770592  1
  Cu  Cu8  1  0.50000000  0.50000000  0.00000000  1
  Ni  Ni9  1  0.00000000  0.66768000  0.77241000  1
  Sb  Sb10  1  0.00000000  0.00000000  0.00000000  1
  Sb  Sb11  1  0.99968829  0.99909696  0.54023873  1
  Sb  Sb12  1  0.00000000  0.50000000  0.88621000  1
  Sb  Sb13  1  0.50000000  0.50000000  0.77241000  1
  Sb  Sb14  1  0.00000000  0.66768000  0.00000000  1
  Sb  Sb15  1  0.50000000  0.66768000  0.88621000  1
  Sb  Sb16  1  0.49994567  0.67450411  0.65607901  1
  Sb  Sb17  1  0.50000000  0.16768000  0.00000000  1
  Sb  Sb18  1  0.00000000  0.16768000  0.88621000  1
  Sb  Sb19  1  0.50000000  0.16768000  0.77241000  1
  Sb  Sb20  1  0.99980282  0.16877585  0.65971093  1
  Sb  Sb21  1  0.49898802  0.18357861  0.53558076  1
  Sb  Sb22  1  0.50000000  0.83232000  0.00000000  1
  Sb  Sb23  1  0.50000000  0.83232000  0.77241000  1
  Sb  Sb24  1  0.00008036  0.83903037  0.66364962  1
  Sb  Sb25  1  0.49949279  0.82466708  0.54027799  1
  Sb  Sb26  1  0.00000000  0.33232000  0.00000000  1
  Sb  Sb27  1  0.00000000  0.33232000  0.77241000  1
  Sb  Sb28  1  0.49983768  0.32734401  0.65128975  1
  Sb  Sb29  1  0.00005023  0.34768860  0.54218578  1
  Cl  Cl30  1  0.49793951  0.47276106  0.47330178  1
  O  O31  1  0.00000000  0.82836000  0.95506000  1
  O  O32  1  0.50000000  0.82836000  0.84126000  1
  O  O33  1  0.00019600  0.84474300  0.72934800  1
  O  O34  1  0.50013950  0.83740138  0.61207617  1
  O  O35  1  0.50000000  0.82836000  0.93115000  1
  O  O36  1  0.00000000  0.82836000  0.81736000  1
  O  O37  1  0.49965226  0.83865755  0.70054742  1
  O  O38  1  0.99899818  0.85105639  0.59172120  1
  O  O39  1  0.69747000  0.32836000  0.00000000  1
  O  O40  1  0.19747000  0.32836000  0.88621000  1
  O  O41  1  0.69747000  0.32836000  0.77241000  1
  O  O42  1  0.19863204  0.32514524  0.66025387  1
  O  O43  1  0.68535256  0.35137949  0.55713601  1
  O  O44  1  0.30253000  0.32836000  0.00000000  1
  O  O45  1  0.80253000  0.32836000  0.88621000  1
  O  O46  1  0.30253000  0.32836000  0.77241000  1
  O  O47  1  0.80053001  0.32481797  0.66073940  1
  O  O48  1  0.31390195  0.35156562  0.55790554  1
  O  O49  1  0.69747000  0.67164000  0.00000000  1
  O  O50  1  0.19747000  0.67164000  0.88621000  1
  O  O51  1  0.69747000  0.67164000  0.77241000  1
  O  O52  1  0.19085866  0.67564505  0.65186015  1
  O  O53  1  0.75111603  0.64306243  0.54368060  1
  O  O54  1  0.30253000  0.67164000  0.00000000  1
  O  O55  1  0.80253000  0.67164000  0.88621000  1
  O  O56  1  0.30253000  0.67164000  0.77241000  1
  O  O57  1  0.80923505  0.67565574  0.65186301  1
  O  O58  1  0.24550222  0.64208251  0.54399173  1
  O  O59  1  0.00000000  0.17164000  0.95506000  1
  O  O60  1  0.50000000  0.17164000  0.84126000  1
  O  O61  1  0.00021600  0.15531300  0.72933600  1
  O  O62  1  0.50063351  0.15673876  0.61111494  1
  O  O63  1  0.50000000  0.17164000  0.93115000  1
  O  O64  1  0.00000000  0.17164000  0.81736000  1
  O  O65  1  0.49910349  0.16650757  0.70087943  1
  O  O66  1  0.99893664  0.16974461  0.58586593  1
  O  O67  1  0.00000000  0.50000000  0.95668000  1
  O  O68  1  0.50000000  0.50000000  0.84289000  1
  O  O69  1  0.00049200  0.50002000  0.72830400  1
  O  O70  1  0.50115030  0.51051273  0.61260977  1
  O  O71  1  0.50000000  0.50000000  0.92952000  1
  O  O72  1  0.00000000  0.50000000  0.81573000  1
  O  O73  1  0.49984292  0.49825338  0.69976898  1
  O  O74  1  0.99727439  0.47742024  0.59509825  1
  O  O75  1  0.69034000  1.00000000  0.00000000  1
  O  O76  1  0.19034000  0.00000000  0.88621000  1
  O  O77  1  0.69034000  1.00000000  0.77241000  1
  O  O78  1  0.19704818  0.00516436  0.65692919  1
  O  O79  1  0.69340017  0.99552239  0.54841995  1
  O  O80  1  0.30966000  0.00000000  0.00000000  1
  O  O81  1  0.80966000  1.00000000  0.88621000  1
  O  O82  1  0.30966000  0.00000000  0.77241000  1
  O  O83  1  0.80278919  0.00505640  0.65706359  1
  O  O84  1  0.30539284  0.99548353  0.54870421  1
