# generated using pymatgen
data_MgTiMnVZnCrFeCoCuNiSb20ClO54
_symmetry_space_group_name_H-M   'P 1'
_cell_length_a   6.69627900
_cell_length_b   9.44310100
_cell_length_c   29.24675900
_cell_angle_alpha   89.79988500
_cell_angle_beta   89.99817600
_cell_angle_gamma   89.99327000
_symmetry_Int_Tables_number   1
_chemical_formula_structural   MgTiMnVZnCrFeCoCuNiSb20ClO54
_chemical_formula_sum
'Mg1 Ti1 Mn1 V1 Zn1 Cr1 Fe1 Co1 Cu1 Ni1 Sb20 Cl1 O54'
_cell_volume   1849.36770454
_cell_formula_units_Z   1
loop_
 _symmetry_equiv_pos_site_id
 _symmetry_equiv_pos_as_xyz
  1  'x, y, z'
loop_
 _atom_site_type_symbol
 _atom_site_label
 _atom_site_symmetry_multiplicity
 _atom_site_fract_x
 _atom_site_fract_y
 _atom_site_fract_z
 _atom_site_occupancy
  Mg  Mg0  1  1.00000000  0.83232000  0.88621000  1
  Ti  Ti1  1  0.49873117  0.33540473  0.65909313  1
  Mn  Mn2  1  0.50001847  0.18228795  0.54988189  1
  V  V3  1  0.00000000  1.00000000  0.77241000  1
  Zn  Zn4  1  0.00020894  0.49741131  0.66044181  1
  Cr  Cr5  1  0.50000000  1.00000000  0.88621000  1
  Fe  Fe6  1  1.00000000  0.66768000  0.77241000  1
  Co  Co7  1  0.49991324  0.49667089  0.55107429  1
  Cu  Cu8  1  0.00000000  0.00000000  0.00000000  1
  Ni  Ni9  1  0.50000000  0.83232000  0.00000000  1
  Sb  Sb10  1  0.49974938  0.00645202  0.65769228  1
  Sb  Sb11  1  0.99990768  0.00297020  0.54084173  1
  Sb  Sb12  1  0.50000000  0.50000000  0.00000000  1
  Sb  Sb13  1  1.00000000  0.50000000  0.88621000  1
  Sb  Sb14  1  0.50000000  0.50000000  0.77241000  1
  Sb  Sb15  1  0.00000000  0.33232000  0.00000000  1
  Sb  Sb16  1  0.50000000  0.33232000  0.88621000  1
  Sb  Sb17  1  0.00000000  0.33232000  0.77241000  1
  Sb  Sb18  1  0.00025875  0.33162010  0.54176544  1
  Sb  Sb19  1  0.50000000  0.83232000  0.77241000  1
  Sb  Sb20  1  0.00080597  0.82899358  0.66220514  1
  Sb  Sb21  1  0.50020909  0.82679060  0.53822356  1
  Sb  Sb22  1  0.50000000  0.16768000  0.00000000  1
  Sb  Sb23  1  0.00000000  0.16768000  0.88621000  1
  Sb  Sb24  1  0.50000000  0.16768000  0.77241000  1
  Sb  Sb25  1  0.99920656  0.17765649  0.65929200  1
  Sb  Sb26  1  1.00000000  0.66768000  0.00000000  1
  Sb  Sb27  1  0.50000000  0.66768000  0.88621000  1
  Sb  Sb28  1  0.50111338  0.65979572  0.64788719  1
  Sb  Sb29  1  0.99886145  0.65873381  0.54767875  1
  Cl  Cl30  1  0.50548874  0.54258998  0.47820401  1
  O  O31  1  0.00000000  0.17164000  0.95506000  1
  O  O32  1  0.50000000  0.17164000  0.84126000  1
  O  O33  1  0.99980400  0.15525700  0.72934800  1
  O  O34  1  0.49754204  0.17319378  0.61821340  1
  O  O35  1  0.50000000  0.17164000  0.93115000  1
  O  O36  1  0.00000000  0.17164000  0.81736000  1
  O  O37  1  0.50063903  0.16451426  0.70469233  1
  O  O38  1  0.00196274  0.16849096  0.58962838  1
  O  O39  1  0.30253000  0.67164000  0.00000000  1
  O  O40  1  0.80253000  0.67164000  0.88621000  1
  O  O41  1  0.30253000  0.67164000  0.77241000  1
  O  O42  1  0.80611355  0.67349998  0.65855261  1
  O  O43  1  0.31338967  0.65675346  0.56203635  1
  O  O44  1  0.69747000  0.67164000  0.00000000  1
  O  O45  1  0.19747000  0.67164000  0.88621000  1
  O  O46  1  0.69747000  0.67164000  0.77241000  1
  O  O47  1  0.19553696  0.67344296  0.65823181  1
  O  O48  1  0.68408560  0.65568960  0.56384572  1
  O  O49  1  0.30253000  0.32836000  0.00000000  1
  O  O50  1  0.80253000  0.32836000  0.88621000  1
  O  O51  1  0.30253000  0.32836000  0.77241000  1
  O  O52  1  0.79636872  0.32406958  0.66169490  1
  O  O53  1  0.31885477  0.33767971  0.54449502  1
  O  O54  1  0.69747000  0.32836000  0.00000000  1
  O  O55  1  0.19747000  0.32836000  0.88621000  1
  O  O56  1  0.69747000  0.32836000  0.77241000  1
  O  O57  1  0.20185471  0.32393883  0.66251627  1
  O  O58  1  0.68129611  0.33769134  0.54549367  1
  O  O59  1  1.00000000  0.82836000  0.95506000  1
  O  O60  1  0.50000000  0.82836000  0.84126000  1
  O  O61  1  0.99978400  0.84468700  0.72933600  1
  O  O62  1  0.49854545  0.85440290  0.61128992  1
  O  O63  1  0.50000000  0.82836000  0.93115000  1
  O  O64  1  1.00000000  0.82836000  0.81736000  1
  O  O65  1  0.49980098  0.84076089  0.70134970  1
  O  O66  1  0.99956532  0.83922032  0.58982180  1
  O  O67  1  1.00000000  0.50000000  0.95668000  1
  O  O68  1  0.50000000  0.50000000  0.84289000  1
  O  O69  1  0.99950800  0.49998000  0.72830400  1
  O  O70  1  0.49545328  0.46727004  0.61369900  1
  O  O71  1  0.50000000  0.50000000  0.92952000  1
  O  O72  1  1.00000000  0.50000000  0.81573000  1
  O  O73  1  0.50066745  0.49247391  0.70213503  1
  O  O74  1  0.00199257  0.48740297  0.58858520  1
  O  O75  1  0.30966000  0.00000000  0.00000000  1
  O  O76  1  0.80966000  1.00000000  0.88621000  1
  O  O77  1  0.30966000  1.00000000  0.77241000  1
  O  O78  1  0.80894260  0.00466957  0.65817291  1
  O  O79  1  0.30926362  0.02845522  0.54547486  1
  O  O80  1  0.69034000  0.00000000  0.00000000  1
  O  O81  1  0.19034000  1.00000000  0.88621000  1
  O  O82  1  0.69034000  1.00000000  0.77241000  1
  O  O83  1  0.19034590  0.00500754  0.65856185  1
  O  O84  1  0.69150413  0.03030759  0.54596262  1
