# generated using pymatgen
data_MgTiMnVZnCrFeCoCuNiSb20ClO54
_symmetry_space_group_name_H-M   'P 1'
_cell_length_a   6.68931500
_cell_length_b   9.50881700
_cell_length_c   29.11648000
_cell_angle_alpha   90.15065700
_cell_angle_beta   89.98259700
_cell_angle_gamma   89.99244100
_symmetry_Int_Tables_number   1
_chemical_formula_structural   MgTiMnVZnCrFeCoCuNiSb20ClO54
_chemical_formula_sum
'Mg1 Ti1 Mn1 V1 Zn1 Cr1 Fe1 Co1 Cu1 Ni1 Sb20 Cl1 O54'
_cell_volume   1852.01918763
_cell_formula_units_Z   1
loop_
 _symmetry_equiv_pos_site_id
 _symmetry_equiv_pos_as_xyz
  1  'x, y, z'
loop_
 _atom_site_type_symbol
 _atom_site_label
 _atom_site_symmetry_multiplicity
 _atom_site_fract_x
 _atom_site_fract_y
 _atom_site_fract_z
 _atom_site_occupancy
  Mg  Mg0  1  0.00000000  0.00000000  0.22759000  1
  Ti  Ti1  1  0.50000000  0.66768000  0.11379000  1
  Mn  Mn2  1  0.00000000  0.33232000  1.00000000  1
  V  V3  1  0.49939973  0.99213265  0.33975487  1
  Zn  Zn4  1  0.00000000  0.50000000  0.11379000  1
  Cr  Cr5  1  0.49992216  0.67391876  0.33874304  1
  Fe  Fe6  1  0.49792194  0.82179700  0.44440242  1
  Co  Co7  1  0.49775408  0.50842904  0.44305135  1
  Cu  Cu8  1  0.99919032  0.50944728  0.33746586  1
  Ni  Ni9  1  1.00000000  0.33232000  0.22759000  1
  Sb  Sb10  1  0.00000000  0.00000000  0.00000000  1
  Sb  Sb11  1  0.50000000  0.00000000  0.11379000  1
  Sb  Sb12  1  0.99750756  0.99709631  0.45642435  1
  Sb  Sb13  1  0.50000000  0.50000000  1.00000000  1
  Sb  Sb14  1  0.50000000  0.50000000  0.22759000  1
  Sb  Sb15  1  0.50000000  0.33232000  0.11379000  1
  Sb  Sb16  1  0.49874521  0.33449185  0.34383409  1
  Sb  Sb17  1  0.99917210  0.34385976  0.45004863  1
  Sb  Sb18  1  0.50000000  0.83232000  1.00000000  1
  Sb  Sb19  1  0.00000000  0.83232000  0.11379000  1
  Sb  Sb20  1  0.50000000  0.83232000  0.22759000  1
  Sb  Sb21  1  0.99980599  0.82810008  0.33832163  1
  Sb  Sb22  1  0.50000000  0.16768000  1.00000000  1
  Sb  Sb23  1  0.00000000  0.16768000  0.11379000  1
  Sb  Sb24  1  0.50000000  0.16768000  0.22759000  1
  Sb  Sb25  1  0.99865427  0.16948847  0.33552065  1
  Sb  Sb26  1  0.49723700  0.18346989  0.45406004  1
  Sb  Sb27  1  0.00000000  0.66768000  1.00000000  1
  Sb  Sb28  1  0.00000000  0.66768000  0.22759000  1
  Sb  Sb29  1  0.99828981  0.66657818  0.45385643  1
  Cl  Cl30  1  0.49189525  0.47543692  0.51745288  1
  O  O31  1  1.00000000  0.17164000  0.04494000  1
  O  O32  1  0.50000000  0.17164000  0.15874000  1
  O  O33  1  0.00019600  0.15525700  0.27065200  1
  O  O34  1  0.49978448  0.14784357  0.38364617  1
  O  O35  1  0.50000000  0.17164000  0.06885000  1
  O  O36  1  0.00000000  0.17164000  0.18264000  1
  O  O37  1  0.49989107  0.16187519  0.29806531  1
  O  O38  1  0.99872192  0.16252270  0.40857160  1
  O  O39  1  0.69747000  0.67164000  1.00000000  1
  O  O40  1  0.19747000  0.67164000  0.11379000  1
  O  O41  1  0.69747000  0.67164000  0.22759000  1
  O  O42  1  0.20456057  0.67914368  0.33793129  1
  O  O43  1  0.67450890  0.66759517  0.44757969  1
  O  O44  1  0.30253000  0.67164000  1.00000000  1
  O  O45  1  0.80253000  0.67164000  0.11379000  1
  O  O46  1  0.30253000  0.67164000  0.22759000  1
  O  O47  1  0.79501445  0.67904191  0.33747196  1
  O  O48  1  0.32090234  0.66742994  0.44662028  1
  O  O49  1  0.69747000  0.32836000  1.00000000  1
  O  O50  1  0.19747000  0.32836000  0.11379000  1
  O  O51  1  0.69747000  0.32836000  0.22759000  1
  O  O52  1  0.19573300  0.32871489  0.34118990  1
  O  O53  1  0.68463180  0.34884501  0.43605382  1
  O  O54  1  0.30253000  0.32836000  1.00000000  1
  O  O55  1  0.80253000  0.32836000  0.11379000  1
  O  O56  1  0.30253000  0.32836000  0.22759000  1
  O  O57  1  0.80230646  0.32881280  0.34129345  1
  O  O58  1  0.31251404  0.34970220  0.43479720  1
  O  O59  1  0.00000000  0.82836000  0.04494000  1
  O  O60  1  0.50000000  0.82836000  0.15874000  1
  O  O61  1  0.00021600  0.84468700  0.27066400  1
  O  O62  1  0.50011882  0.83828941  0.37710325  1
  O  O63  1  0.50000000  0.82836000  0.06885000  1
  O  O64  1  0.00000000  0.82836000  0.18264000  1
  O  O65  1  0.49935390  0.83584566  0.29611999  1
  O  O66  1  0.99587543  0.83331072  0.40922715  1
  O  O67  1  0.00000000  0.50000000  0.04332000  1
  O  O68  1  0.50000000  0.50000000  0.15711000  1
  O  O69  1  0.00049200  0.49998000  0.27169600  1
  O  O70  1  0.50044863  0.51914173  0.37944608  1
  O  O71  1  0.50000000  0.50000000  0.07048000  1
  O  O72  1  0.00000000  0.50000000  0.18427000  1
  O  O73  1  0.49951084  0.50256272  0.29643544  1
  O  O74  1  0.99645928  0.51074677  0.40731802  1
  O  O75  1  0.69034000  1.00000000  1.00000000  1
  O  O76  1  0.19034000  0.00000000  0.11379000  1
  O  O77  1  0.69034000  0.00000000  0.22759000  1
  O  O78  1  0.19640955  0.99835545  0.34141115  1
  O  O79  1  0.68923310  0.96043570  0.45384670  1
  O  O80  1  0.30966000  1.00000000  1.00000000  1
  O  O81  1  0.80966000  0.00000000  0.11379000  1
  O  O82  1  0.30966000  0.00000000  0.22759000  1
  O  O83  1  0.80231135  0.99806446  0.34125448  1
  O  O84  1  0.30558459  0.95918948  0.45327334  1
