# generated using pymatgen
data_MgTiMnVZnCrFeCoCuNiSb20ClO54
_symmetry_space_group_name_H-M   'P 1'
_cell_length_a   6.70078300
_cell_length_b   9.28307500
_cell_length_c   28.84847600
_cell_angle_alpha   90.65162600
_cell_angle_beta   89.97389000
_cell_angle_gamma   89.99881400
_symmetry_Int_Tables_number   1
_chemical_formula_structural   MgTiMnVZnCrFeCoCuNiSb20ClO54
_chemical_formula_sum
'Mg1 Ti1 Mn1 V1 Zn1 Cr1 Fe1 Co1 Cu1 Ni1 Sb20 Cl1 O54'
_cell_volume   1794.37064379
_cell_formula_units_Z   1
loop_
 _symmetry_equiv_pos_site_id
 _symmetry_equiv_pos_as_xyz
  1  'x, y, z'
loop_
 _atom_site_type_symbol
 _atom_site_label
 _atom_site_symmetry_multiplicity
 _atom_site_fract_x
 _atom_site_fract_y
 _atom_site_fract_z
 _atom_site_occupancy
  Mg  Mg0  1  0.50000000  0.83232000  0.00000000  1
  Ti  Ti1  1  0.50000000  0.16768000  0.77241000  1
  Mn  Mn2  1  0.50000000  0.33232000  0.88621000  1
  V  V3  1  0.50000000  0.16768000  0.00000000  1
  Zn  Zn4  1  1.00000000  0.83232000  0.88621000  1
  Cr  Cr5  1  0.50000000  0.00000000  0.88621000  1
  Fe  Fe6  1  0.00000000  0.66768000  0.77241000  1
  Co  Co7  1  0.49764800  0.49526800  0.55127600  1
  Cu  Cu8  1  0.49929600  0.32694500  0.65785400  1
  Ni  Ni9  1  1.00000000  0.00000000  0.77241000  1
  Sb  Sb10  1  0.00000000  0.00000000  0.00000000  1
  Sb  Sb11  1  0.50007600  0.00475100  0.65574600  1
  Sb  Sb12  1  0.99936200  0.98786600  0.53811700  1
  Sb  Sb13  1  0.50000000  0.50000000  0.00000000  1
  Sb  Sb14  1  1.00000000  0.50000000  0.88621000  1
  Sb  Sb15  1  0.50000000  0.50000000  0.77241000  1
  Sb  Sb16  1  0.99769600  0.49027100  0.65858500  1
  Sb  Sb17  1  0.00000000  0.66768000  0.00000000  1
  Sb  Sb18  1  0.50000000  0.66768000  0.88621000  1
  Sb  Sb19  1  0.49920600  0.65698300  0.65501300  1
  Sb  Sb20  1  0.99923700  0.65643200  0.53897300  1
  Sb  Sb21  1  1.00000000  0.16768000  0.88621000  1
  Sb  Sb22  1  0.00044500  0.16949500  0.65902600  1
  Sb  Sb23  1  0.49647300  0.16842100  0.53942400  1
  Sb  Sb24  1  0.50000000  0.83232000  0.77241000  1
  Sb  Sb25  1  0.99878900  0.83083900  0.66191900  1
  Sb  Sb26  1  0.49517500  0.80879000  0.52537000  1
  Sb  Sb27  1  1.00000000  0.33232000  0.00000000  1
  Sb  Sb28  1  1.00000000  0.33232000  0.77241000  1
  Sb  Sb29  1  0.99991500  0.33233900  0.53685200  1
  Cl  Cl30  1  0.48452200  0.49260900  0.47534800  1
  O  O31  1  0.00000000  0.82836000  0.95506000  1
  O  O32  1  0.50000000  0.82836000  0.84126000  1
  O  O33  1  0.00019600  0.84474300  0.72934800  1
  O  O34  1  0.50525500  0.82944600  0.61538500  1
  O  O35  1  0.50000000  0.82836000  0.93115000  1
  O  O36  1  1.00000000  0.82836000  0.81736000  1
  O  O37  1  0.49833000  0.83014800  0.70145700  1
  O  O38  1  0.99468200  0.82306600  0.59257000  1
  O  O39  1  0.69747000  0.32836000  0.00000000  1
  O  O40  1  0.19747000  0.32836000  0.88621000  1
  O  O41  1  0.69747000  0.32836000  0.77241000  1
  O  O42  1  0.19765700  0.33080300  0.66078400  1
  O  O43  1  0.69177100  0.34175500  0.55171800  1
  O  O44  1  0.30253000  0.32836000  0.00000000  1
  O  O45  1  0.80253000  0.32836000  0.88621000  1
  O  O46  1  0.30253000  0.32836000  0.77241000  1
  O  O47  1  0.80180900  0.32915600  0.66235600  1
  O  O48  1  0.30603400  0.34351700  0.55535500  1
  O  O49  1  0.69747000  0.67164000  0.00000000  1
  O  O50  1  0.19747000  0.67164000  0.88621000  1
  O  O51  1  0.69747000  0.67164000  0.77241000  1
  O  O52  1  0.19317700  0.66012300  0.66164900  1
  O  O53  1  0.68567400  0.65277900  0.55251000  1
  O  O54  1  0.30253000  0.67164000  0.00000000  1
  O  O55  1  0.80253000  0.67164000  0.88621000  1
  O  O56  1  0.30253000  0.67164000  0.77241000  1
  O  O57  1  0.80511800  0.66069900  0.66314000  1
  O  O58  1  0.31278200  0.65209800  0.55624700  1
  O  O59  1  1.00000000  0.17164000  0.95506000  1
  O  O60  1  0.50000000  0.17164000  0.84126000  1
  O  O61  1  0.00021600  0.15531300  0.72933600  1
  O  O62  1  0.50443800  0.15949900  0.61125600  1
  O  O63  1  0.50000000  0.17164000  0.93115000  1
  O  O64  1  0.00000000  0.17164000  0.81736000  1
  O  O65  1  0.49736500  0.15958800  0.70312000  1
  O  O66  1  0.99679000  0.16120700  0.58893000  1
  O  O67  1  1.00000000  0.50000000  0.95668000  1
  O  O68  1  0.50000000  0.50000000  0.84289000  1
  O  O69  1  0.00049200  0.50002000  0.72830400  1
  O  O70  1  0.51700500  0.49003600  0.61543800  1
  O  O71  1  0.50000000  0.50000000  0.92952000  1
  O  O72  1  0.00000000  0.50000000  0.81573000  1
  O  O73  1  0.49700300  0.50174700  0.70375800  1
  O  O74  1  0.99488400  0.49754400  0.59040600  1
  O  O75  1  0.69034000  0.00000000  0.00000000  1
  O  O76  1  0.19034000  0.00000000  0.88621000  1
  O  O77  1  0.69034000  0.00000000  0.77241000  1
  O  O78  1  0.19493100  0.99949300  0.65849700  1
  O  O79  1  0.69291700  0.97692400  0.54937300  1
  O  O80  1  0.30966000  0.00000000  0.00000000  1
  O  O81  1  0.80966000  0.00000000  0.88621000  1
  O  O82  1  0.30966000  0.00000000  0.77241000  1
  O  O83  1  0.80497700  0.00060700  0.65921000  1
  O  O84  1  0.30332800  0.97647300  0.55239900  1
