# generated using pymatgen
data_MgTiMnVZnCrFeCoCuNiSb20ClO54
_symmetry_space_group_name_H-M   'P 1'
_cell_length_a   6.61483700
_cell_length_b   9.48736400
_cell_length_c   29.10968800
_cell_angle_alpha   90.12030200
_cell_angle_beta   89.97591900
_cell_angle_gamma   89.99920600
_symmetry_Int_Tables_number   1
_chemical_formula_structural   MgTiMnVZnCrFeCoCuNiSb20ClO54
_chemical_formula_sum
'Mg1 Ti1 Mn1 V1 Zn1 Cr1 Fe1 Co1 Cu1 Ni1 Sb20 Cl1 O54'
_cell_volume   1826.84316771
_cell_formula_units_Z   1
loop_
 _symmetry_equiv_pos_site_id
 _symmetry_equiv_pos_as_xyz
  1  'x, y, z'
loop_
 _atom_site_type_symbol
 _atom_site_label
 _atom_site_symmetry_multiplicity
 _atom_site_fract_x
 _atom_site_fract_y
 _atom_site_fract_z
 _atom_site_occupancy
  Mg  Mg0  1  0.50000000  0.50000000  0.77241000  1
  Ti  Ti1  1  0.00000000  0.66768000  1.00000000  1
  Mn  Mn2  1  1.00000000  0.16768000  0.88621000  1
  V  V3  1  1.00000000  0.50000000  0.88621000  1
  Zn  Zn4  1  0.00280809  0.98775897  0.55700216  1
  Cr  Cr5  1  0.50000000  0.83232000  0.77241000  1
  Fe  Fe6  1  0.99990646  0.83244313  0.66233611  1
  Co  Co7  1  0.50125481  0.49987071  0.55221492  1
  Cu  Cu8  1  0.50000000  0.50000000  1.00000000  1
  Ni  Ni9  1  1.00000000  0.66768000  0.77241000  1
  Sb  Sb10  1  0.00000000  0.00000000  0.00000000  1
  Sb  Sb11  1  0.50000000  1.00000000  0.88621000  1
  Sb  Sb12  1  0.00000000  0.00000000  0.77241000  1
  Sb  Sb13  1  0.50031983  0.99347393  0.65582877  1
  Sb  Sb14  1  0.00300806  0.50925653  0.66069845  1
  Sb  Sb15  1  1.00000000  0.33232000  1.00000000  1
  Sb  Sb16  1  0.50000000  0.33232000  0.88621000  1
  Sb  Sb17  1  0.00000000  0.33232000  0.77241000  1
  Sb  Sb18  1  0.50166468  0.33500412  0.65310169  1
  Sb  Sb19  1  0.99963130  0.33953714  0.54282164  1
  Sb  Sb20  1  0.50000000  0.83232000  1.00000000  1
  Sb  Sb21  1  1.00000000  0.83232000  0.88621000  1
  Sb  Sb22  1  0.50282512  0.81919793  0.52623806  1
  Sb  Sb23  1  0.50000000  0.16768000  1.00000000  1
  Sb  Sb24  1  0.50000000  0.16768000  0.77241000  1
  Sb  Sb25  1  0.00081391  0.16025924  0.65557509  1
  Sb  Sb26  1  0.50291050  0.17186122  0.53401891  1
  Sb  Sb27  1  0.50000000  0.66768000  0.88621000  1
  Sb  Sb28  1  0.50099519  0.66780889  0.66245915  1
  Sb  Sb29  1  0.00007526  0.67695408  0.54628305  1
  Cl  Cl30  1  0.51269443  0.48427200  0.47787727  1
  O  O31  1  0.00000000  0.17164000  0.95506000  1
  O  O32  1  0.50000000  0.17164000  0.84126000  1
  O  O33  1  0.99980400  0.15525700  0.72934800  1
  O  O34  1  0.49938311  0.15875144  0.61258315  1
  O  O35  1  0.50000000  0.17164000  0.93115000  1
  O  O36  1  1.00000000  0.17164000  0.81736000  1
  O  O37  1  0.50123883  0.16633544  0.70140352  1
  O  O38  1  0.00195324  0.17602453  0.58810014  1
  O  O39  1  0.30253000  0.67164000  1.00000000  1
  O  O40  1  0.80253000  0.67164000  0.88621000  1
  O  O41  1  0.30253000  0.67164000  0.77241000  1
  O  O42  1  0.80406894  0.66698427  0.66247890  1
  O  O43  1  0.31599049  0.65532455  0.55185570  1
  O  O44  1  0.69747000  0.67164000  1.00000000  1
  O  O45  1  0.19747000  0.67164000  0.88621000  1
  O  O46  1  0.69747000  0.67164000  0.77241000  1
  O  O47  1  0.19736367  0.66939084  0.66325572  1
  O  O48  1  0.68468882  0.65567969  0.55438538  1
  O  O49  1  0.30253000  0.32836000  1.00000000  1
  O  O50  1  0.80253000  0.32836000  0.88621000  1
  O  O51  1  0.30253000  0.32836000  0.77241000  1
  O  O52  1  0.80935479  0.33052358  0.66070190  1
  O  O53  1  0.31288277  0.34343917  0.55823617  1
  O  O54  1  0.69747000  0.32836000  1.00000000  1
  O  O55  1  0.19747000  0.32836000  0.88621000  1
  O  O56  1  0.69747000  0.32836000  0.77241000  1
  O  O57  1  0.19368977  0.32935543  0.66099882  1
  O  O58  1  0.68697066  0.34420275  0.56090992  1
  O  O59  1  0.00000000  0.82836000  0.95506000  1
  O  O60  1  0.50000000  0.82836000  0.84126000  1
  O  O61  1  0.99978400  0.84468700  0.72933600  1
  O  O62  1  0.50009158  0.82652973  0.61594565  1
  O  O63  1  0.50000000  0.82836000  0.93115000  1
  O  O64  1  1.00000000  0.82836000  0.81736000  1
  O  O65  1  0.50257399  0.84001093  0.70481298  1
  O  O66  1  0.00181439  0.81747160  0.59608527  1
  O  O67  1  1.00000000  0.50000000  0.95668000  1
  O  O68  1  0.50000000  0.50000000  0.84289000  1
  O  O69  1  0.99950800  0.49998000  0.72830400  1
  O  O70  1  0.49105961  0.50938455  0.61574117  1
  O  O71  1  0.50000000  0.50000000  0.92952000  1
  O  O72  1  0.00000000  0.50000000  0.81573000  1
  O  O73  1  0.50048271  0.49058019  0.70115314  1
  O  O74  1  0.00246481  0.50316026  0.58999203  1
  O  O75  1  0.30966000  1.00000000  0.00000000  1
  O  O76  1  0.80966000  1.00000000  0.88621000  1
  O  O77  1  0.30966000  1.00000000  0.77241000  1
  O  O78  1  0.80469036  0.00095040  0.65851374  1
  O  O79  1  0.29677387  0.99144841  0.54415116  1
  O  O80  1  0.69034000  0.00000000  1.00000000  1
  O  O81  1  0.19034000  1.00000000  0.88621000  1
  O  O82  1  0.69034000  0.00000000  0.77241000  1
  O  O83  1  0.19602978  0.00086912  0.65878396  1
  O  O84  1  0.70876190  0.99140408  0.54450140  1
